/*--------------------------------*- C++ -*----------------------------------*\
  =========                 |
  \\      /  F ield         | OpenFOAM: The Open Source CFD Toolbox
   \\    /   O peration     | Website:  https://openfoam.org
    \\  /    A nd           | Version:  7
     \\/     M anipulation  |
\*---------------------------------------------------------------------------*/
FoamFile
{
    version     2.0;
    format      ascii;
    class       extendedFeatureEdgeMesh;
    location    "constant/extendedFeatureEdgeMesh";
    object      baffles.extendedFeatureEdgeMesh;
}
// * * * * * * * * * * * * * * * * * * * * * * * * * * * * * * * * * * * * * //

// points

139
(
(97.7547 11.0409 194.709)
(94.5463 11.0409 195.43)
(24.1194 11.0409 148.101)
(24.7702 11.0409 151.03)
(71.4486 11.0409 77.6742)
(68.52 11.0409 78.325)
(141.225 11.0409 122.075)
(141.876 11.0409 125.003)
(129.532 11.0409 124.703)
(130.19 11.0409 127.63)
(95.1281 11.0409 183.023)
(91.9196 11.0409 183.744)
(71.1483 11.0409 90.018)
(74.0752 11.0409 89.3601)
(36.4632 11.0409 148.401)
(35.8053 11.0409 145.474)
(71.1483 166.041 90.018)
(74.0752 166.041 89.3601)
(129.532 166.041 124.703)
(130.19 166.041 127.63)
(141.876 166.041 125.003)
(24.7702 166.041 151.03)
(36.4632 166.041 148.401)
(68.52 166.041 78.325)
(91.9196 166.041 183.744)
(94.5463 166.041 195.43)
(141.225 166.041 122.075)
(71.4486 166.041 77.6742)
(95.1281 166.041 183.023)
(97.7547 166.041 194.709)
(24.1194 166.041 148.101)
(35.8053 166.041 145.474)
(142.767 166.041 131.295)
(25.1006 166.041 152.299)
(65.542 166.041 79.1474)
(90.0232 166.041 196.139)
(139.86 166.041 117.403)
(72.454 166.041 77.4858)
(116.457 166.041 186.356)
(110.332 166.041 189.964)
(103.823 166.041 192.822)
(137.196 166.041 110.812)
(142.969 166.041 138.401)
(142.329 166.041 145.481)
(140.857 166.041 152.436)
(138.572 166.041 159.168)
(135.507 166.041 165.582)
(131.705 166.041 171.589)
(127.219 166.041 177.104)
(122.113 166.041 182.049)
(82.9263 166.041 196.552)
(75.8304 166.041 196.123)
(68.8352 166.041 194.857)
(62.0387 166.041 192.773)
(55.5364 166.041 189.899)
(49.4197 166.041 186.277)
(23.6446 166.041 145.341)
(23.0217 166.041 138.259)
(23.2408 166.041 131.154)
(24.2987 166.041 124.124)
(43.7743 166.041 181.956)
(38.6795 166.041 176.999)
(34.2068 166.041 171.473)
(26.1807 166.041 117.269)
(28.8602 166.041 110.684)
(32.2996 166.041 104.463)
(100.589 166.041 79.189)
(107.25 166.041 81.6722)
(30.419 166.041 165.458)
(27.3694 166.041 159.036)
(36.4508 166.041 98.6918)
(41.2554 166.041 93.4523)
(46.646 166.041 88.8178)
(79.514 166.041 76.6534)
(86.6228 166.041 76.6618)
(93.6808 166.041 77.511)
(113.571 166.041 84.9258)
(119.462 166.041 88.9041)
(124.841 166.041 93.5514)
(52.5468 166.041 84.8535)
(58.8751 166.041 81.6149)
(129.634 166.041 98.8022)
(133.771 166.041 104.583)
(103.823 167.041 192.822)
(97.0214 167.041 194.89)
(97.0214 11.0409 194.89)
(90.0232 167.041 196.139)
(82.9263 167.041 196.552)
(75.8304 167.041 196.123)
(68.8352 167.041 194.857)
(62.0387 167.041 192.773)
(55.5364 167.041 189.899)
(49.4197 167.041 186.277)
(43.7743 167.041 181.956)
(38.6795 167.041 176.999)
(34.2068 167.041 171.473)
(30.419 167.041 165.458)
(27.3694 167.041 159.036)
(25.1006 167.041 152.299)
(58.8751 167.041 81.6149)
(65.542 167.041 79.1474)
(52.5468 167.041 84.8535)
(46.646 167.041 88.8178)
(41.2554 167.041 93.4523)
(36.4508 167.041 98.6918)
(32.2996 167.041 104.463)
(28.8602 167.041 110.684)
(26.1807 167.041 117.269)
(24.2987 167.041 124.124)
(23.2408 167.041 131.154)
(23.0217 167.041 138.259)
(23.6446 167.041 145.341)
(72.454 167.041 77.4858)
(79.514 167.041 76.6534)
(86.6228 167.041 76.6618)
(93.6808 167.041 77.511)
(100.589 167.041 79.189)
(107.25 167.041 81.6722)
(113.571 167.041 84.9258)
(119.462 167.041 88.9041)
(124.841 167.041 93.5514)
(129.634 167.041 98.8022)
(133.771 167.041 104.583)
(137.196 167.041 110.812)
(139.86 167.041 117.403)
(141.725 167.041 124.263)
(141.725 11.0409 124.263)
(142.767 167.041 131.295)
(142.969 167.041 138.401)
(142.329 167.041 145.481)
(140.857 167.041 152.436)
(138.572 167.041 159.168)
(135.507 167.041 165.582)
(133.695 167.041 168.642)
(110.332 167.041 189.964)
(116.457 167.041 186.356)
(122.113 167.041 182.049)
(127.219 167.041 177.104)
(131.705 167.041 171.589)
)

// edges

155
(
(20 32)
(33 21)
(34 23)
(25 35)
(36 26)
(27 37)
(38 39)
(39 40)
(40 29)
(41 36)
(32 42)
(42 43)
(43 44)
(44 45)
(45 46)
(46 47)
(47 48)
(48 49)
(49 38)
(35 50)
(50 51)
(51 52)
(52 53)
(53 54)
(54 55)
(30 56)
(56 57)
(57 58)
(58 59)
(55 60)
(60 61)
(61 62)
(59 63)
(63 64)
(64 65)
(66 67)
(62 68)
(68 69)
(69 33)
(65 70)
(70 71)
(71 72)
(37 73)
(73 74)
(74 75)
(75 66)
(67 76)
(76 77)
(77 78)
(72 79)
(79 80)
(80 34)
(78 81)
(81 82)
(82 41)
(0 29)
(83 84)
(85 0)
(25 1)
(1 85)
(84 86)
(86 87)
(87 88)
(88 89)
(89 90)
(90 91)
(91 92)
(92 93)
(93 94)
(94 95)
(95 96)
(96 97)
(97 98)
(30 2)
(2 3)
(3 21)
(99 100)
(101 99)
(102 101)
(103 102)
(104 103)
(105 104)
(106 105)
(107 106)
(108 107)
(109 108)
(110 109)
(111 110)
(98 111)
(27 4)
(4 5)
(5 23)
(100 112)
(112 113)
(113 114)
(114 115)
(115 116)
(116 117)
(117 118)
(118 119)
(119 120)
(120 121)
(121 122)
(122 123)
(123 124)
(124 125)
(6 26)
(126 6)
(20 7)
(7 126)
(125 127)
(127 128)
(128 129)
(129 130)
(130 131)
(131 132)
(132 133)
(134 83)
(135 134)
(136 135)
(137 136)
(138 137)
(133 138)
(18 8)
(8 9)
(9 19)
(6 8)
(9 7)
(28 10)
(10 11)
(11 24)
(0 10)
(11 1)
(16 12)
(12 13)
(13 17)
(5 12)
(13 4)
(22 14)
(14 15)
(15 31)
(3 14)
(15 2)
(16 17)
(19 20)
(21 22)
(23 16)
(24 25)
(26 18)
(17 27)
(28 24)
(29 28)
(31 30)
(18 19)
(22 31)
)

// concaveStart mixedStart nonFeatureStart
16 16 32
// internalStart flatStart openStart multipleStart
143 155 155 155
// normals

266
(
(0 -1 0)
(0.989125 0.0447516 -0.1401)
(0 -1 -0)
(-0.967763 0 0.251863)
(0 -1 0)
(-0.266195 0 -0.963919)
(0 -1 0)
(0.153188 0.148402 0.97699)
(0 -1 0)
(0.959867 0 -0.280456)
(0 -1 0)
(-0.184115 0 -0.982905)
(-0 -1 0)
(0.50751 0 0.861646)
(0 -1 0)
(0.402031 0 0.915626)
(0 -1 0)
(0.296947 0 0.954894)
(-0 -1 0)
(0.927135 0 -0.374727)
(-0 -1 0)
(0.999595 0 -0.0284446)
(0 -1 0)
(0.995944 0 0.0899731)
(0 -1 0)
(0.978312 0 0.207136)
(-0 -1 0)
(0.946945 0 0.321396)
(0 -1 0)
(0.902291 0 0.431128)
(0 -1 0)
(0.840301 -0.104804 0.531892)
(-0 -1 0)
(0.775781 0 0.631002)
(0 -1 0)
(0.695706 0 0.718326)
(0 -1 0)
(0.605855 0 0.795575)
(-0 -1 -0)
(0.0580548 0 0.998313)
(0 -1 0)
(-0.060431 0 0.998172)
(0 -1 0)
(-0.178046 0 0.984022)
(0 -1 0)
(-0.293197 0 0.956052)
(0 -1 0)
(-0.404212 0 0.914665)
(0 -1 0)
(-0.509548 0 0.860443)
(0 -1 -0)
(-0.985527 0 0.169521)
(0 -1 0)
(-0.996154 0 0.0876151)
(0 -1 0)
(-0.999525 -0 -0.0308196)
(0 -1 0)
(-0.988865 -0 -0.148816)
(0 -1 0)
(-0.607745 0 0.794132)
(0 -1 0)
(-0.697398 0 0.716684)
(0 -1 0)
(-0.777269 0 0.629168)
(0 -1 0)
(-0.964322 -0 -0.264732)
(0 -1 0)
(-0.926244 -0 -0.376923)
(0 -1 0)
(-0.875162 -0 -0.48383)
(0 -1 0)
(0.34931 0 -0.937007)
(0 -1 -0)
(-0.846227 0 0.532823)
(0 -1 0)
(-0.903307 0 0.428994)
(0 -1 0)
(-0.947705 0 0.319149)
(0 -1 0)
(-0.811794 -0 -0.583944)
(0 -1 0)
(-0.737033 -0 -0.675856)
(-0 -1 0)
(-0.651924 -0 -0.758284)
(0 -1 0)
(-0.117096 0 -0.993121)
(0 -1 0)
(0.00118484 0 -0.999999)
(0 -1 0)
(0.119451 0 -0.99284)
(0 -1 0)
(0.236038 0 -0.971744)
(0 -1 0)
(0.457683 0 -0.889115)
(0 -1 0)
(0.559632 0 -0.828741)
(0 -1 0)
(0.653716 0 -0.75674)
(0 -1 0)
(-0.557663 -0 -0.830068)
(0 -1 0)
(-0.455576 -0 -0.890197)
(0 -1 0)
(-0.34709 -0 -0.937832)
(0 -1 0)
(0.738635 0 -0.674105)
(0 -1 0)
(0.813178 0 -0.582016)
(0 -1 0)
(0.876307 0 -0.481754)
(0.239887 -0 0.970801)
(0.975658 0 -0.2193)
(0.290701 0.0399473 0.95598)
(0 1 0)
(0.239887 0 0.970801)
(0 -1 -0)
(0.21315 0 0.977019)
(-0.975657 0 0.219301)
(0 -1 -0)
(0.175723 0 0.98444)
(0 1 0)
(0.0580548 -0 0.998313)
(0 1 -0)
(-0.060431 0 0.998172)
(0 1 0)
(-0.178046 0 0.984022)
(-0 1 0)
(-0.293197 0 0.956052)
(0 1 0)
(-0.404212 0 0.914665)
(0 1 0)
(-0.509548 0 0.860443)
(-0 1 0)
(-0.607745 0 0.794132)
(0 1 0)
(-0.697398 0 0.716684)
(0 1 0)
(-0.777269 0 0.629168)
(-0 1 0)
(-0.846227 0 0.532823)
(0 1 0)
(-0.903307 0 0.428994)
(0 1 0)
(-0.947705 0 0.319149)
(-0 1 0)
(-0.97618 0 0.21696)
(-0.219304 0 -0.975657)
(0 -1 -0)
(-0.97618 0 0.21696)
(0.219297 -0 0.975658)
(-0.34709 0 -0.937832)
(0 1 0)
(-0.455576 0 -0.890197)
(0 1 -0)
(-0.557663 0 -0.830068)
(0 1 0)
(-0.651924 0 -0.758284)
(0 1 0)
(-0.737033 0 -0.675856)
(0 1 -0)
(-0.811794 0 -0.583944)
(0 1 0)
(-0.875162 0 -0.48383)
(0 1 0)
(-0.926244 0 -0.376923)
(0 1 -0)
(-0.964322 0 -0.264732)
(0 1 0)
(-0.988865 0 -0.148816)
(0 1 0)
(-0.999525 0 -0.0308196)
(0 1 -0)
(-0.996154 0 0.0876151)
(0 1 0)
(-0.973882 0.100121 0.203788)
(0 1 0)
(-0.216954 0 -0.976182)
(0.975657 0 -0.219301)
(0 -1 0)
(-0.216954 0 -0.976182)
(-0.975657 0 0.219301)
(-0.233421 0.0518164 -0.970994)
(0 1 0)
(-0.117096 0 -0.993121)
(0 1 -0)
(0.00118484 0 -0.999999)
(0 1 0)
(0.119451 0 -0.99284)
(0 1 0)
(0.236038 0 -0.971744)
(0 1 0)
(0.34931 0 -0.937007)
(0 1 0)
(0.457683 0 -0.889115)
(0 1 0)
(0.559632 0 -0.828741)
(0 1 0)
(0.653716 0 -0.75674)
(0 1 0)
(0.738635 0 -0.674105)
(0 1 0)
(0.813178 0 -0.582016)
(0 1 0)
(0.876307 0 -0.481754)
(0 1 0)
(0.927135 0 -0.374727)
(0 1 0)
(0.960971 0.090684 -0.261366)
(0 1 0)
(0.974798 0 -0.22309)
(-0.219306 0 -0.975656)
(0.974798 0 -0.22309)
(-0 -1 0)
(0.980058 0 -0.198712)
(0.219295 0 0.975659)
(-0 -1 0)
(0.989214 0 -0.146477)
(0 1 0)
(0.999595 0 -0.0284446)
(-0 1 0)
(0.995944 -0 0.0899731)
(0 1 0)
(0.978312 -0 0.207136)
(0 1 0)
(0.946945 -0 0.321396)
(0 1 0)
(0.902291 -0 0.431128)
(0 1 0)
(0.860434 -0 0.509562)
(0 1 0)
(0.402031 0 0.915626)
(0 1 0)
(0.50751 0 0.861646)
(0 1 0)
(0.605855 0 0.795575)
(0 1 0)
(0.695706 0 0.718326)
(0 1 0)
(0.775781 0 0.631002)
(0 1 0)
(0.828733 0 0.559643)
(0 1 0)
(-0.975655 0 0.21931)
(-0.219306 0 -0.975656)
(0 -1 0)
(-0.975655 0 0.21931)
(0.219295 -0 0.975659)
(-0.219309 0 -0.975655)
(0.975658 0 -0.2193)
(0 -1 0)
(-0.219309 0 -0.975655)
(-0.975657 0 0.219301)
(0.219304 -0 0.975657)
(-0.975657 0 0.219301)
(0 -1 0)
(0.219304 0 0.975657)
(0.975657 0 -0.219301)
(0.975658 0 -0.219298)
(0.219297 0 0.975658)
(0 -1 0)
(0.975658 0 -0.219298)
(-0.219304 0 -0.975657)
(0 -1 0)
(-0 -1 0)
(-0 -1 0)
(0 -1 0)
)

// normal volume types

266
(
0
0
0
0
0
0
0
0
0
0
0
0
0
0
0
0
0
0
0
0
0
0
0
0
0
0
0
0
0
0
0
0
0
0
0
0
0
0
0
0
0
0
0
0
0
0
0
0
0
0
0
0
0
0
0
0
0
0
0
0
0
0
0
0
0
0
0
0
0
0
0
0
0
0
0
0
0
0
0
0
0
0
0
0
0
0
0
0
0
0
0
0
0
0
0
0
0
0
0
0
0
0
0
0
0
0
0
0
0
0
0
0
0
0
0
0
0
0
0
0
0
0
0
0
0
0
0
0
0
0
0
0
0
0
0
0
0
0
0
0
0
0
0
0
0
0
0
0
0
0
0
0
0
0
0
0
0
0
0
0
0
0
0
0
0
0
0
0
0
0
0
0
0
0
0
0
0
0
0
0
0
0
0
0
0
0
0
0
0
0
0
0
0
0
0
0
0
0
0
0
0
0
0
0
0
0
0
0
0
0
0
0
0
0
0
0
0
0
0
0
0
0
0
0
0
0
0
0
0
0
0
0
0
0
0
0
0
0
0
0
0
0
0
0
0
0
0
0
0
0
0
0
0
0
0
0
0
0
0
0
0
0
0
0
0
0
)

// normalDirections

155
(
2(1 -1)
2(1 -1)
2(1 -1)
2(1 -1)
2(1 -1)
2(1 -1)
2(1 -1)
2(1 -1)
2(1 -1)
2(1 -1)
2(1 -1)
2(1 -1)
2(1 -1)
2(1 -1)
2(1 -1)
2(1 -1)
2(1 -1)
2(1 -1)
2(1 -1)
2(1 -1)
2(1 -1)
2(1 -1)
2(1 -1)
2(1 -1)
2(1 -1)
2(1 -1)
2(1 -1)
2(1 -1)
2(1 -1)
2(1 -1)
2(1 -1)
2(1 -1)
2(1 -1)
2(1 -1)
2(1 -1)
2(1 -1)
2(1 -1)
2(1 -1)
2(1 -1)
2(1 -1)
2(1 -1)
2(1 -1)
2(1 -1)
2(1 -1)
2(1 -1)
2(1 -1)
2(1 -1)
2(1 -1)
2(1 -1)
2(1 -1)
2(1 -1)
2(1 -1)
2(1 -1)
2(1 -1)
2(1 -1)
2(1 -1)
2(1 -1)
2(1 -1)
2(1 -1)
2(1 -1)
2(1 -1)
2(1 -1)
2(1 -1)
2(1 -1)
2(1 -1)
2(1 -1)
2(1 -1)
2(1 -1)
2(1 -1)
2(1 -1)
2(1 -1)
2(1 -1)
2(1 -1)
2(1 -1)
2(1 -1)
2(1 -1)
2(1 -1)
2(1 -1)
2(1 -1)
2(1 -1)
2(1 -1)
2(1 -1)
2(1 -1)
2(1 -1)
2(1 -1)
2(1 -1)
2(1 -1)
2(1 -1)
2(1 -1)
2(1 -1)
2(1 -1)
2(1 -1)
2(1 -1)
2(1 -1)
2(1 -1)
2(1 -1)
2(1 -1)
2(1 -1)
2(1 -1)
2(1 -1)
2(1 -1)
2(1 -1)
2(1 -1)
2(1 -1)
2(1 -1)
2(1 -1)
2(1 -1)
2(1 -1)
2(1 -1)
2(1 -1)
2(1 -1)
2(1 -1)
2(1 -1)
2(1 -1)
2(1 -1)
2(1 -1)
2(1 -1)
2(1 -1)
2(1 -1)
2(1 -1)
2(1 -1)
2(1 -1)
2(1 -1)
2(1 -1)
2(1 -1)
2(1 -1)
2(1 -1)
2(1 -1)
2(1 -1)
2(1 -1)
2(1 -1)
2(1 -1)
2(1 -1)
2(1 -1)
2(1 -1)
2(1 -1)
2(1 -1)
2(1 -1)
2(1 -1)
2(1 -1)
2(1 -1)
2(1 -1)
2(1 -1)
2(1 -1)
2(1 -1)
2(1 -1)
2(1 -1)
2(1 -1)
2(1 -1)
2(1 -1)
2(1 -1)
2(1 -1)
2(1 -1)
2(1 -1)
2(1 -1)
)

// edgeNormals

155
(
2(0 1)
2(2 3)
2(4 5)
2(6 7)
2(8 9)
2(10 11)
2(12 13)
2(14 15)
2(16 17)
2(18 19)
2(20 21)
2(22 23)
2(24 25)
2(26 27)
2(28 29)
2(30 31)
2(32 33)
2(34 35)
2(36 37)
2(38 39)
2(40 41)
2(42 43)
2(44 45)
2(46 47)
2(48 49)
2(50 51)
2(52 53)
2(54 55)
2(56 57)
2(58 59)
2(60 61)
2(62 63)
2(64 65)
2(66 67)
2(68 69)
2(70 71)
2(72 73)
2(74 75)
2(76 77)
2(78 79)
2(80 81)
2(82 83)
2(84 85)
2(86 87)
2(88 89)
2(90 91)
2(92 93)
2(94 95)
2(96 97)
2(98 99)
2(100 101)
2(102 103)
2(104 105)
2(106 107)
2(108 109)
2(110 111)
2(112 113)
2(114 115)
2(116 117)
2(116 118)
2(119 120)
2(121 122)
2(123 124)
2(125 126)
2(127 128)
2(129 130)
2(131 132)
2(133 134)
2(135 136)
2(137 138)
2(139 140)
2(141 142)
2(143 144)
2(145 146)
2(145 147)
2(148 149)
2(150 151)
2(152 153)
2(154 155)
2(156 157)
2(158 159)
2(160 161)
2(162 163)
2(164 165)
2(166 167)
2(168 169)
2(170 171)
2(172 173)
2(174 175)
2(176 177)
2(176 178)
2(179 180)
2(181 182)
2(183 184)
2(185 186)
2(187 188)
2(189 190)
2(191 192)
2(193 194)
2(195 196)
2(197 198)
2(199 200)
2(201 202)
2(203 204)
2(205 206)
2(207 208)
2(209 210)
2(211 212)
2(213 214)
2(213 215)
2(216 217)
2(218 219)
2(220 221)
2(222 223)
2(224 225)
2(226 227)
2(228 229)
2(230 231)
2(232 233)
2(234 235)
2(236 237)
2(238 239)
2(240 241)
2(242 243)
2(242 244)
2(245 246)
2(210 212)
2(246 215)
2(247 248)
2(247 249)
2(250 251)
2(111 115)
2(251 118)
2(252 253)
2(252 254)
2(255 256)
2(180 178)
2(256 254)
2(257 258)
2(257 259)
2(260 261)
2(149 147)
2(261 259)
2(262 255)
2(0 214)
2(2 258)
2(4 253)
2(6 117)
2(8 243)
2(10 177)
2(263 250)
2(16 248)
2(50 146)
2(264 245)
2(265 260)
)

// featurePointNormals

32
(
3(110 111 115)
3(116 117 118)
3(145 146 147)
3(145 147 149)
3(176 177 178)
3(176 178 180)
3(209 210 212)
3(213 214 215)
3(242 243 244)
3(242 244 246)
3(247 248 249)
3(247 249 251)
3(252 253 254)
3(252 254 256)
3(257 258 259)
3(257 259 261)
3(252 253 262)
3(255 256 262)
3(242 243 8)
3(245 246 0)
4(0 1 213 214)
4(2 3 148 149)
3(257 258 2)
4(4 5 179 180)
3(250 251 6)
4(6 7 116 117)
4(8 9 209 210)
4(10 11 176 177)
3(247 248 263)
4(16 17 110 111)
4(50 51 145 146)
3(260 261 50)
)

// featurePointEdges

32
(
3(57 131 55)
3(58 132 59)
3(73 142 74)
3(75 141 74)
3(89 137 90)
3(91 136 90)
3(107 126 106)
3(108 127 109)
3(123 126 124)
3(125 127 124)
3(128 131 129)
3(130 132 129)
3(133 136 134)
3(135 137 134)
3(138 141 139)
3(140 142 139)
3(146 133 143)
3(149 135 143)
3(153 123 148)
3(153 125 144)
3(0 108 144)
3(1 75 145)
3(154 138 145)
3(2 91 146)
3(150 130 147)
3(3 58 147)
3(4 106 148)
3(5 89 149)
3(151 128 150)
3(8 55 151)
3(25 73 152)
3(154 140 152)
)

// regionEdges
0()


// ************************************************************************* //
