/*--------------------------------*- C++ -*----------------------------------*\
  =========                 |
  \\      /  F ield         | OpenFOAM: The Open Source CFD Toolbox
   \\    /   O peration     | Website:  https://openfoam.org
    \\  /    A nd           | Version:  7
     \\/     M anipulation  |
\*---------------------------------------------------------------------------*/
FoamFile
{
    version     2.0;
    format      ascii;
    class       extendedFeatureEdgeMesh;
    location    "constant/extendedFeatureEdgeMesh";
    object      impeller.extendedFeatureEdgeMesh;
}
// * * * * * * * * * * * * * * * * * * * * * * * * * * * * * * * * * * * * * //

// points

216
(
(81.9974 32.1308 142.177)
(83.9974 32.1308 142.177)
(83.9974 32.1308 152.177)
(83.9974 24.1308 152.177)
(83.9974 24.1308 142.177)
(81.9974 32.1308 152.177)
(81.9974 24.1308 152.177)
(81.9974 24.1308 142.177)
(77.626 32.1308 138.499)
(78.626 32.1308 140.231)
(69.9658 32.1308 145.231)
(69.9658 24.1308 145.231)
(78.626 24.1308 140.231)
(68.9658 32.1308 143.499)
(68.9658 24.1308 143.499)
(77.626 24.1308 138.499)
(87.3688 32.1308 140.231)
(88.3688 32.1308 138.499)
(96.0291 32.1308 145.231)
(97.0291 32.1308 143.499)
(88.3688 24.1308 138.499)
(87.3688 24.1308 140.231)
(97.0291 24.1308 143.499)
(96.0291 24.1308 145.231)
(88.3688 32.1308 134.606)
(87.3688 32.1308 132.874)
(87.3688 24.1308 132.874)
(88.3688 24.1308 134.606)
(96.0291 32.1308 127.874)
(96.0291 24.1308 127.874)
(97.0291 32.1308 129.606)
(97.0291 24.1308 129.606)
(83.9974 32.1308 130.927)
(81.9974 32.1308 130.927)
(83.9974 32.1308 120.927)
(83.9974 24.1308 120.927)
(81.9974 32.1308 120.927)
(81.9974 24.1308 120.927)
(83.9974 24.1308 130.927)
(81.9974 24.1308 130.927)
(78.626 32.1308 132.874)
(77.626 32.1308 134.606)
(77.626 24.1308 134.606)
(78.626 24.1308 132.874)
(68.9658 32.1308 129.606)
(68.9658 24.1308 129.606)
(69.9658 32.1308 127.874)
(69.9658 24.1308 127.874)
(76.0602 27.1308 139.403)
(76.0602 29.1308 139.403)
(76.0602 29.1308 133.702)
(76.0602 27.1308 133.702)
(77.626 27.1308 134.606)
(77.0602 27.1308 141.135)
(78.626 27.1308 140.231)
(81.9974 27.1308 129.119)
(81.9974 27.1308 130.927)
(77.626 27.1308 138.499)
(78.626 27.1308 132.874)
(88.9346 27.1308 131.97)
(87.3688 27.1308 132.874)
(89.9346 27.1308 139.403)
(88.3688 27.1308 138.499)
(77.0602 27.1308 131.97)
(83.9974 27.1308 130.927)
(88.3688 27.1308 134.606)
(89.9346 27.1308 133.702)
(81.9974 27.1308 142.177)
(81.9974 27.1308 143.985)
(83.9974 27.1308 143.985)
(83.9974 27.1308 142.177)
(87.3688 27.1308 140.231)
(88.9346 27.1308 141.135)
(83.9974 27.1308 129.119)
(77.626 29.1308 134.606)
(77.626 29.1308 138.499)
(81.9974 29.1308 143.985)
(81.9974 29.1308 142.177)
(78.626 29.1308 132.874)
(77.0602 29.1308 131.97)
(81.9974 29.1308 129.119)
(81.9974 29.1308 130.927)
(89.9346 29.1308 133.702)
(88.3688 29.1308 134.606)
(83.9974 29.1308 142.177)
(78.626 29.1308 140.231)
(87.3688 29.1308 140.231)
(88.9346 29.1308 141.135)
(83.9974 29.1308 143.985)
(87.3688 29.1308 132.874)
(88.3688 29.1308 138.499)
(83.9974 29.1308 130.927)
(83.9974 29.1308 129.119)
(77.0602 29.1308 141.135)
(88.9346 29.1308 131.97)
(89.9346 29.1308 139.403)
(75.7017 29.1308 138.291)
(75.7017 27.1308 138.291)
(75.5202 29.1308 137.136)
(75.5202 27.1308 137.136)
(75.5202 29.1308 135.968)
(75.5202 27.1308 135.968)
(75.7017 29.1308 134.814)
(75.7017 27.1308 134.814)
(77.844 27.1308 142.001)
(80.8551 27.1308 129.365)
(78.7529 27.1308 142.736)
(79.7647 27.1308 143.32)
(80.8551 27.1308 143.74)
(88.1508 27.1308 131.103)
(90.2932 27.1308 138.291)
(77.844 27.1308 131.103)
(78.7529 27.1308 130.369)
(79.7647 27.1308 129.785)
(90.2932 27.1308 134.814)
(90.4746 27.1308 137.136)
(85.1397 27.1308 143.74)
(86.2301 27.1308 143.32)
(90.4746 27.1308 135.968)
(88.1508 27.1308 142.001)
(87.242 27.1308 142.736)
(85.1397 27.1308 129.365)
(86.2301 27.1308 129.785)
(87.242 27.1308 130.369)
(80.8551 29.1308 143.74)
(79.7647 29.1308 129.785)
(78.7529 29.1308 130.369)
(77.844 29.1308 131.103)
(80.8551 29.1308 129.365)
(90.2932 29.1308 134.814)
(87.242 29.1308 142.736)
(88.1508 29.1308 142.001)
(85.1397 29.1308 143.74)
(86.2301 29.1308 143.32)
(86.2301 29.1308 129.785)
(85.1397 29.1308 129.365)
(77.844 29.1308 142.001)
(78.7529 29.1308 142.736)
(79.7647 29.1308 143.32)
(88.1508 29.1308 131.103)
(87.242 29.1308 130.369)
(90.2932 29.1308 138.291)
(90.4746 29.1308 137.136)
(90.4746 29.1308 135.968)
(80.043 149.131 137.073)
(79.9974 149.131 136.552)
(80.1783 149.131 137.578)
(80.3993 149.131 138.052)
(80.6993 149.131 138.481)
(81.0691 149.131 138.85)
(81.4974 149.131 139.15)
(81.9714 149.131 139.371)
(82.4765 149.131 139.507)
(82.9974 149.131 139.552)
(83.5184 149.131 139.507)
(84.0235 149.131 139.371)
(84.4974 149.131 139.15)
(84.9258 149.131 138.85)
(85.2955 149.131 138.481)
(85.5955 149.131 138.052)
(85.8165 149.131 137.578)
(85.9518 149.131 137.073)
(85.9974 149.131 136.552)
(85.9518 149.131 136.031)
(85.8165 149.131 135.526)
(85.5955 149.131 135.052)
(85.2955 149.131 134.624)
(84.9258 149.131 134.254)
(84.4974 149.131 133.954)
(84.0235 149.131 133.733)
(83.5184 149.131 133.598)
(82.9974 149.131 133.552)
(82.4765 149.131 133.598)
(81.9714 149.131 133.733)
(81.4974 149.131 133.954)
(81.0691 149.131 134.254)
(80.6993 149.131 134.624)
(80.3993 149.131 135.052)
(80.1783 149.131 135.526)
(80.043 149.131 136.031)
(79.9974 29.1308 136.552)
(80.043 29.1308 136.031)
(80.1783 29.1308 135.526)
(81.0691 29.1308 138.85)
(80.6993 29.1308 138.481)
(81.4974 29.1308 139.15)
(80.3993 29.1308 138.052)
(80.1783 29.1308 137.578)
(80.043 29.1308 137.073)
(80.3993 29.1308 135.052)
(80.6993 29.1308 134.624)
(81.0691 29.1308 134.254)
(81.4974 29.1308 133.954)
(83.5184 29.1308 133.598)
(84.0235 29.1308 133.733)
(84.4974 29.1308 133.954)
(84.9258 29.1308 134.254)
(81.9714 29.1308 133.733)
(82.4765 29.1308 133.598)
(82.9974 29.1308 133.552)
(85.5955 29.1308 138.052)
(85.2955 29.1308 138.481)
(85.8165 29.1308 137.578)
(84.9258 29.1308 138.85)
(84.4974 29.1308 139.15)
(84.0235 29.1308 139.371)
(83.5184 29.1308 139.507)
(82.9974 29.1308 139.552)
(82.4765 29.1308 139.507)
(81.9714 29.1308 139.371)
(85.2955 29.1308 134.624)
(85.5955 29.1308 135.052)
(85.8165 29.1308 135.526)
(85.9518 29.1308 136.031)
(85.9974 29.1308 136.552)
(85.9518 29.1308 137.073)
)

// edges

264
(
(49 96)
(97 48)
(96 98)
(99 97)
(98 100)
(101 99)
(100 102)
(103 101)
(102 50)
(51 103)
(104 53)
(105 55)
(106 104)
(107 106)
(108 107)
(109 59)
(110 61)
(63 111)
(111 112)
(112 113)
(113 105)
(66 114)
(115 110)
(68 108)
(116 69)
(117 116)
(114 118)
(118 115)
(72 119)
(119 120)
(73 121)
(121 122)
(122 123)
(123 109)
(120 117)
(124 76)
(125 126)
(126 127)
(127 79)
(80 128)
(128 125)
(129 82)
(130 131)
(131 87)
(88 132)
(132 133)
(133 130)
(134 135)
(135 92)
(93 136)
(136 137)
(137 138)
(138 124)
(94 139)
(139 140)
(140 134)
(95 141)
(141 142)
(142 143)
(143 129)
(144 145)
(146 144)
(147 146)
(148 147)
(149 148)
(150 149)
(151 150)
(152 151)
(153 152)
(154 153)
(155 154)
(156 155)
(157 156)
(158 157)
(159 158)
(160 159)
(161 160)
(162 161)
(163 162)
(164 163)
(165 164)
(166 165)
(167 166)
(168 167)
(169 168)
(170 169)
(171 170)
(172 171)
(173 172)
(174 173)
(175 174)
(176 175)
(177 176)
(178 177)
(179 178)
(145 179)
(77 0)
(1 84)
(0 1)
(1 2)
(2 3)
(4 70)
(3 4)
(5 6)
(2 5)
(6 3)
(67 7)
(7 6)
(5 0)
(4 7)
(75 8)
(9 85)
(8 9)
(9 10)
(10 11)
(12 54)
(11 12)
(13 14)
(10 13)
(14 11)
(57 15)
(15 14)
(13 8)
(12 15)
(16 17)
(86 16)
(17 90)
(16 18)
(19 17)
(18 19)
(62 20)
(21 71)
(20 21)
(19 22)
(22 20)
(18 23)
(23 22)
(21 23)
(83 24)
(25 89)
(24 25)
(60 26)
(26 27)
(27 65)
(25 28)
(28 29)
(29 26)
(30 31)
(28 30)
(31 29)
(27 31)
(30 24)
(91 32)
(33 81)
(32 33)
(34 35)
(36 34)
(37 36)
(35 37)
(64 38)
(38 35)
(34 32)
(56 39)
(39 38)
(33 36)
(37 39)
(78 40)
(41 74)
(40 41)
(52 42)
(42 43)
(43 58)
(41 44)
(44 45)
(45 42)
(46 47)
(44 46)
(47 45)
(43 47)
(46 40)
(48 49)
(50 51)
(51 52)
(53 54)
(55 56)
(54 57)
(52 58)
(59 60)
(61 62)
(58 63)
(60 65)
(65 66)
(57 48)
(67 68)
(69 70)
(56 64)
(62 71)
(71 72)
(64 73)
(70 67)
(74 50)
(49 75)
(76 77)
(79 78)
(81 80)
(180 181)
(181 182)
(78 74)
(183 184)
(185 183)
(82 83)
(77 84)
(87 86)
(84 88)
(184 186)
(186 187)
(187 188)
(188 180)
(182 189)
(83 89)
(92 91)
(85 93)
(189 190)
(190 191)
(191 192)
(89 94)
(90 95)
(193 194)
(194 195)
(195 196)
(192 197)
(197 198)
(91 81)
(198 199)
(199 193)
(200 201)
(86 90)
(202 200)
(201 203)
(203 204)
(204 205)
(205 206)
(206 207)
(207 208)
(75 85)
(208 209)
(209 185)
(196 210)
(210 211)
(211 212)
(212 213)
(213 214)
(214 215)
(215 202)
(63 79)
(80 55)
(73 92)
(94 59)
(66 82)
(95 61)
(68 76)
(93 53)
(72 87)
(88 69)
)

// concaveStart mixedStart nonFeatureStart
48 48 96
// internalStart flatStart openStart multipleStart
180 264 264 264
// normals

408
(
(-0.951752 0 0.306868)
(0 1 0)
(-0.951752 0 0.306868)
(0 -1 -0)
(-0.987866 0 0.155307)
(-0 1 0)
(-0.987866 0 0.155307)
(0 -1 0)
(-1 0 0)
(0 1 0)
(-1 0 0)
(0 -1 0)
(-0.987864 0 -0.155319)
(0 1 0)
(-0.987864 0 -0.155319)
(0 -1 0)
(-0.951759 0 -0.306845)
(0 1 0)
(-0.951759 0 -0.306845)
(0 -1 0)
(0 -1 -0)
(-0.741615 0 0.670826)
(0 -1 0)
(-0.210112 0 -0.977677)
(0 -1 0)
(-0.628451 0 0.777849)
(0 -1 -0)
(-0.499993 0 0.866029)
(0 -1 -0)
(-0.359386 0 0.933189)
(0 -1 0)
(0.741615 0 -0.670826)
(0 -1 0)
(0.951748 0 0.30688)
(0 -1 0)
(-0.741615 0 -0.670826)
(0 -1 -0)
(-0.628451 0 -0.777849)
(0 -1 0)
(-0.499993 0 -0.866029)
(0 -1 0)
(-0.359454 0 -0.933163)
(0 -1 0)
(0.951756 0 -0.306857)
(-0 -1 -0)
(0.987866 0 0.155307)
(0 -1 0)
(-0.2102 0 0.977658)
(0 -1 0)
(0.210201 0 0.977658)
(0 -1 -0)
(0.359388 0 0.933188)
(-0 -1 0)
(0.987864 0 -0.155319)
(0 -1 0)
(1 0 0)
(-0 -1 0)
(0.741615 0 0.670826)
(0 -1 0)
(0.628445 0 0.777854)
(0 -1 0)
(0.210114 0 -0.977677)
(0 -1 0)
(0.359456 0 -0.933162)
(0 -1 0)
(0.499993 0 -0.866029)
(0 -1 -0)
(0.628445 0 -0.777854)
(0 -1 0)
(0.499993 0 0.866029)
(-0 1 0)
(-0.2102 0 0.977658)
(0 1 0)
(-0.499993 0 -0.866029)
(0 1 0)
(-0.628451 0 -0.777849)
(0 1 0)
(-0.741615 0 -0.670826)
(0 1 -0)
(-0.210112 0 -0.977677)
(0 1 0)
(-0.359454 0 -0.933163)
(0 1 0)
(0.951756 0 -0.306857)
(0 1 -0)
(0.628445 -0 0.777854)
(0 1 0)
(0.741615 -0 0.670826)
(0 1 0)
(0.210201 -0 0.977658)
(0 1 0)
(0.359388 -0 0.933188)
(0 1 0)
(0.499993 -0 0.866029)
(0 1 0)
(0.359456 0 -0.933162)
(0 1 0)
(0.210114 0 -0.977677)
(-0 1 0)
(-0.741615 0 0.670826)
(0 1 -0)
(-0.628451 0 0.777849)
(0 1 0)
(-0.499993 0 0.866029)
(0 1 0)
(-0.359386 0 0.933189)
(0 1 0)
(0.741615 0 -0.670826)
(0 1 0)
(0.628445 0 -0.777854)
(0 1 0)
(0.499993 0 -0.866029)
(0 1 0)
(0.951748 -0 0.30688)
(0 1 0)
(0.987866 -0 0.155307)
(0 1 0)
(1 0 0)
(0 1 0)
(0.987864 0 -0.155319)
(-0.996195 0 0.0871496)
(0 1 0)
(-0.965927 0 0.258815)
(-0 1 0)
(-0.906298 0 0.42264)
(0 1 0)
(-0.819173 0 0.573547)
(0 1 0)
(-0.707129 0 0.707085)
(-0 1 0)
(-0.573519 0 0.819192)
(0 1 0)
(-0.42263 0 0.906302)
(0 1 0)
(-0.258739 0 0.965947)
(-0 1 0)
(-0.0871861 0 0.996192)
(0 1 -0)
(0.0871887 0 0.996192)
(0 1 0)
(0.258732 0 0.965949)
(0 1 0)
(0.42263 0 0.906302)
(0 1 0)
(0.573519 0 0.819192)
(0 1 0)
(0.707136 0 0.707078)
(0 1 0)
(0.81918 0 0.573537)
(0 1 0)
(0.906292 0 0.422652)
(0 1 0)
(0.965923 0 0.258828)
(0 1 0)
(0.996195 0 0.0871496)
(0 1 0)
(0.996194 0 -0.0871648)
(-0 1 0)
(0.965923 0 -0.258828)
(0 1 0)
(0.906323 0 -0.422585)
(0 1 0)
(0.819113 0 -0.573633)
(0 1 0)
(0.707136 0 -0.707078)
(0 1 0)
(0.573656 0 -0.819096)
(0 1 0)
(0.42263 0 -0.906302)
(0 1 0)
(0.258732 0 -0.965949)
(0 1 0)
(0.0871887 0 -0.996192)
(0 1 0)
(-0.0871861 0 -0.996192)
(0 1 0)
(-0.258739 0 -0.965947)
(0 1 -0)
(-0.42263 0 -0.906302)
(0 1 0)
(-0.573656 0 -0.819096)
(0 1 0)
(-0.707129 0 -0.707085)
(0 1 -0)
(-0.819106 0 -0.573643)
(0 1 0)
(-0.906329 0 -0.422573)
(0 1 0)
(-0.965927 0 -0.258815)
(0 1 -0)
(-0.996194 0 -0.0871648)
(0 1 0)
(0 0 -1)
(-1 0 0)
(0 0 -1)
(1 0 0)
(0 1 0)
(1 -0 0)
(0 1 -0)
(1 0 -0)
(0 0 1)
(1 0 0)
(0 0 -1)
(0 -1 -0)
(-0 0 1)
(-1 0 0)
(0 -1 0)
(-1 0 0)
(-0 0 -1)
(-1 -0 0)
(0.866018 0 -0.500012)
(-0.5 0 -0.866026)
(0.866018 0 -0.500012)
(0.500032 -0 0.866007)
(0 1 -0)
(0.500008 1.693e-05 0.866021)
(0 1 0)
(0.500002 0 0.866024)
(-0.866032 0 0.499989)
(0.500008 0 0.866021)
(0.866018 0 -0.500012)
(0 -1 0)
(-0.866032 0 0.499989)
(-0.500002 0 -0.866024)
(0 -1 0)
(-0.499988 -0 -0.866033)
(0.866018 0 -0.500012)
(-0.5 -8.32884e-06 -0.866026)
(-0.866018 -0 -0.500012)
(-0 1 0)
(-0.500008 0 0.866021)
(-0.866018 0 -0.500012)
(0.499991 0 -0.86603)
(0 1 0)
(0.5 6.24551e-06 -0.866025)
(0.866032 0 0.499989)
(-0.866018 -0 -0.500012)
(0.5 0 -0.866025)
(-0.866018 -0 -0.500012)
(-0.500032 0 0.866007)
(0 -1 0)
(0.500002 0 -0.866024)
(0.866032 0 0.499989)
(-0.500003 0 0.866024)
(0 -1 -0)
(-0.500008 -1.64702e-05 0.866021)
(-0.866032 0 0.499989)
(0.500008 -0 0.866021)
(-0.866032 0 0.499989)
(-0.499994 0 -0.866029)
(0 1 0)
(-0.866032 0 0.499989)
(-0.5 -0 -0.866025)
(0 -1 0)
(-0.866032 0 0.499989)
(0.500036 0 0.866005)
(-0.5 -4.38381e-06 -0.866025)
(-0.500002 0 -0.866024)
(0.866018 0 -0.500012)
(0 -1 0)
(0.866018 0 -0.500012)
(0.500002 0 0.866024)
(0 1 0)
(0.500008 1.90134e-05 0.866021)
(0 -0 1)
(1 -0 0)
(0 0 1)
(-1 0 0)
(-0 1 0)
(-0 -0 -1)
(1 0 0)
(0 1 0)
(0 0 -1)
(-1 0 -0)
(0 -1 0)
(1 0 0)
(-0 0 1)
(1 0 0)
(-0 -1 -0)
(0 0 1)
(-1 -0 0)
(-1 0 0)
(0.866032 -0 0.499989)
(0.5 0 -0.866026)
(0.866032 -0 0.499989)
(-0.500032 0 0.866007)
(0 1 0)
(0.866032 -0 0.499989)
(-0.500008 0 0.866021)
(0 -1 -0)
(0.866032 0 0.499989)
(0.499994 0 -0.866029)
(-0.500008 -1.693e-05 0.866021)
(-0.500002 0 0.866024)
(-0.866018 -0 -0.500012)
(0 -1 0)
(-0.866018 -0 -0.500012)
(0.500001 0 -0.866025)
(0 1 -0)
(0.5 3.92401e-06 -0.866026)
(-0.500002 0 -0.866024)
(-0.500002 0 0.866024)
(-0.500032 9.36359e-05 0.866007)
(0.500032 -9.36359e-05 0.866007)
(-1 -0 0)
(0 -1 0)
(0 -1 0)
(-0.499994 2.42463e-05 -0.866029)
(0.499991 -3.45435e-05 -0.86603)
(0 -1 0)
(1 0 0)
(0 -1 0)
(0 -1 0)
(0 -1 0)
(-0.499988 4.60659e-05 -0.866033)
(-1 0 0)
(0.499994 -2.17032e-05 -0.866029)
(0 1 0)
(-0.996194 -0 -0.0871648)
(0 1 0)
(-0.965927 -0 -0.258815)
(-0 1 0)
(0 1 -0)
(-0.707129 0 0.707085)
(0 1 -0)
(-0.573519 0 0.819192)
(0.500036 -0.000105159 0.866005)
(-0 1 0)
(-0.500032 9.10925e-05 0.866007)
(0 1 0)
(-0.819173 0 0.573547)
(0 1 0)
(-0.906298 0 0.42264)
(-0 1 0)
(-0.965927 0 0.258815)
(0 1 0)
(-0.996195 0 0.0871496)
(0 1 0)
(-0.906329 -0 -0.422573)
(0 1 -0)
(1 -0 0)
(0 1 0)
(-0.819106 -0 -0.573643)
(0 1 0)
(-0.707129 -0 -0.707085)
(0 1 0)
(-0.573656 -0 -0.819096)
(-0 1 0)
(0.258732 0 -0.965949)
(0 1 0)
(0.42263 0 -0.906302)
(0 1 0)
(0.573656 0 -0.819096)
(0 1 0)
(-0.42263 -0 -0.906302)
(0 1 -0)
(-0.258739 -0 -0.965947)
(0 1 0)
(0 1 0)
(-0.0871861 -0 -0.996192)
(0 1 0)
(0.0871887 0 -0.996192)
(-0 1 0)
(0.81918 0 0.573537)
(0 1 0)
(-0 1 0)
(0.906292 0 0.422652)
(0 1 -0)
(0.707136 0 0.707078)
(0 1 0)
(0.573519 0 0.819192)
(0 1 0)
(0.42263 0 0.906302)
(0 1 -0)
(0.258732 0 0.965949)
(0 1 0)
(0.0871887 0 0.996192)
(0 1 0)
(-0.0871861 0 0.996192)
(0 1 0)
(0 1 0)
(-0.258739 0 0.965947)
(0 1 0)
(-0.42263 0 0.906302)
(-0 1 0)
(0.707136 0 -0.707078)
(0 1 0)
(0.819113 0 -0.573633)
(0 1 0)
(0.906323 0 -0.422585)
(0 1 0)
(0.965923 0 -0.258828)
(0 1 0)
(0.996194 0 -0.0871648)
(0 1 0)
(0.996195 0 0.0871496)
(0 1 0)
(0.965923 0 0.258828)
(0.500001 0 -0.866025)
(-1 -0 -0)
(1 -0 0)
(-0.500002 -0 -0.866024)
(0.500002 -0 0.866024)
(0.500002 0 -0.866024)
(-1 0 0)
(0.500002 0 0.866024)
(-0.500003 0 0.866024)
(1 0 -0)
)

// normal volume types

408
(
0
0
0
0
0
0
0
0
0
0
0
0
0
0
0
0
0
0
0
0
0
0
0
0
0
0
0
0
0
0
0
0
0
0
0
0
0
0
0
0
0
0
0
0
0
0
0
0
0
0
0
0
0
0
0
0
0
0
0
0
0
0
0
0
0
0
0
0
0
0
0
0
0
0
0
0
0
0
0
0
0
0
0
0
0
0
0
0
0
0
0
0
0
0
0
0
0
0
0
0
0
0
0
0
0
0
0
0
0
0
0
0
0
0
0
0
0
0
0
0
0
0
0
0
0
0
0
0
0
0
0
0
0
0
0
0
0
0
0
0
0
0
0
0
0
0
0
0
0
0
0
0
0
0
0
0
0
0
0
0
0
0
0
0
0
0
0
0
0
0
0
0
0
0
0
0
0
0
0
0
0
0
0
0
0
0
0
0
0
0
0
0
0
0
0
0
0
0
0
0
0
0
0
0
0
0
0
0
0
0
0
0
0
0
0
0
0
0
0
0
0
0
0
0
0
0
0
0
0
0
0
0
0
0
0
0
0
0
0
0
0
0
0
0
0
0
0
0
0
0
0
0
0
0
0
0
0
0
0
0
0
0
0
0
0
0
0
0
0
0
0
0
0
0
0
0
0
0
0
0
0
0
0
0
0
0
0
0
0
0
0
0
0
0
0
0
0
0
0
0
0
0
0
0
0
0
0
0
0
0
0
0
0
0
0
0
0
0
0
0
0
0
0
0
0
0
0
0
0
0
0
0
0
0
0
0
0
0
0
0
0
0
0
0
0
0
0
0
0
0
0
0
0
0
0
0
0
0
0
0
0
0
0
0
0
0
0
0
0
0
0
0
0
0
0
0
0
0
0
0
0
0
0
0
0
0
0
0
0
0
0
0
0
0
0
0
0
0
0
0
0
0
0
0
0
0
0
0
)

// normalDirections

264
(
2(1 -1)
2(1 -1)
2(1 -1)
2(1 -1)
2(1 -1)
2(1 -1)
2(1 -1)
2(1 -1)
2(1 -1)
2(1 -1)
2(1 -1)
2(1 -1)
2(1 -1)
2(1 -1)
2(1 -1)
2(1 -1)
2(1 -1)
2(1 -1)
2(1 -1)
2(1 -1)
2(1 -1)
2(1 -1)
2(1 -1)
2(1 -1)
2(1 -1)
2(1 -1)
2(1 -1)
2(1 -1)
2(1 -1)
2(1 -1)
2(1 -1)
2(1 -1)
2(1 -1)
2(1 -1)
2(1 -1)
2(1 -1)
2(1 -1)
2(1 -1)
2(1 -1)
2(1 -1)
2(1 -1)
2(1 -1)
2(1 -1)
2(1 -1)
2(1 -1)
2(1 -1)
2(1 -1)
2(1 -1)
2(1 -1)
2(1 -1)
2(1 -1)
2(1 -1)
2(1 -1)
2(1 -1)
2(1 -1)
2(1 -1)
2(1 -1)
2(1 -1)
2(1 -1)
2(1 -1)
2(1 -1)
2(1 -1)
2(1 -1)
2(1 -1)
2(1 -1)
2(1 -1)
2(1 -1)
2(1 -1)
2(1 -1)
2(1 -1)
2(1 -1)
2(1 -1)
2(1 -1)
2(1 -1)
2(1 -1)
2(1 -1)
2(1 -1)
2(1 -1)
2(1 -1)
2(1 -1)
2(1 -1)
2(1 -1)
2(1 -1)
2(1 -1)
2(1 -1)
2(1 -1)
2(1 -1)
2(1 -1)
2(1 -1)
2(1 -1)
2(1 -1)
2(1 -1)
2(1 -1)
2(1 -1)
2(1 -1)
2(1 -1)
2(1 -1)
2(1 -1)
2(1 -1)
2(1 -1)
2(1 -1)
2(1 -1)
2(1 -1)
2(1 -1)
2(1 -1)
2(1 -1)
2(1 -1)
2(1 -1)
2(1 -1)
2(1 -1)
2(1 -1)
2(1 -1)
2(1 -1)
2(1 -1)
2(1 -1)
2(1 -1)
2(1 -1)
2(1 -1)
2(1 -1)
2(1 -1)
2(1 -1)
2(1 -1)
2(1 -1)
2(1 -1)
2(1 -1)
2(1 -1)
2(1 -1)
2(1 -1)
2(1 -1)
2(1 -1)
2(1 -1)
2(1 -1)
2(1 -1)
2(1 -1)
2(1 -1)
2(1 -1)
2(1 -1)
2(1 -1)
2(1 -1)
2(1 -1)
2(1 -1)
2(1 -1)
2(1 -1)
2(1 -1)
2(1 -1)
2(1 -1)
2(1 -1)
2(1 -1)
2(1 -1)
2(1 -1)
2(1 -1)
2(1 -1)
2(1 -1)
2(1 -1)
2(1 -1)
2(1 -1)
2(1 -1)
2(1 -1)
2(1 -1)
2(1 -1)
2(1 -1)
2(1 -1)
2(1 -1)
2(1 -1)
2(1 -1)
2(1 -1)
2(1 -1)
2(1 -1)
2(1 -1)
2(1 -1)
2(1 -1)
2(1 -1)
2(1 -1)
2(1 -1)
2(1 -1)
2(1 -1)
2(1 -1)
2(1 -1)
2(1 -1)
2(1 -1)
2(1 -1)
2(1 -1)
2(1 -1)
2(1 -1)
2(1 -1)
2(1 -1)
2(1 -1)
2(1 -1)
2(1 -1)
2(1 -1)
2(1 -1)
2(1 -1)
2(1 -1)
2(1 -1)
2(1 -1)
2(1 -1)
2(1 -1)
2(1 -1)
2(1 -1)
2(1 -1)
2(1 -1)
2(1 -1)
2(1 -1)
2(1 -1)
2(1 -1)
2(1 -1)
2(1 -1)
2(1 -1)
2(1 -1)
2(1 -1)
2(1 -1)
2(1 -1)
2(1 -1)
2(1 -1)
2(1 -1)
2(1 -1)
2(1 -1)
2(1 -1)
2(1 -1)
2(1 -1)
2(1 -1)
2(1 -1)
2(1 -1)
2(1 -1)
2(1 -1)
2(1 -1)
2(1 -1)
2(1 -1)
2(1 -1)
2(1 -1)
2(1 -1)
2(1 -1)
2(1 -1)
2(1 -1)
2(1 -1)
2(1 -1)
2(1 -1)
2(1 -1)
2(1 -1)
2(1 -1)
2(1 -1)
2(1 -1)
2(1 -1)
2(1 -1)
2(1 -1)
2(1 -1)
2(1 -1)
2(1 -1)
2(1 -1)
2(1 -1)
2(1 -1)
2(1 -1)
2(1 -1)
2(1 -1)
2(1 -1)
2(1 -1)
2(1 -1)
2(1 -1)
2(1 -1)
2(1 -1)
2(1 -1)
2(1 -1)
2(1 -1)
2(1 -1)
)

// edgeNormals

264
(
2(0 1)
2(2 3)
2(4 5)
2(6 7)
2(8 9)
2(10 11)
2(12 13)
2(14 15)
2(16 17)
2(18 19)
2(20 21)
2(22 23)
2(24 25)
2(26 27)
2(28 29)
2(30 31)
2(32 33)
2(34 35)
2(36 37)
2(38 39)
2(40 41)
2(42 43)
2(44 45)
2(46 47)
2(48 49)
2(50 51)
2(52 53)
2(54 55)
2(56 57)
2(58 59)
2(60 61)
2(62 63)
2(64 65)
2(66 67)
2(68 69)
2(70 71)
2(72 73)
2(74 75)
2(76 77)
2(78 79)
2(80 81)
2(82 83)
2(84 85)
2(86 87)
2(88 89)
2(90 91)
2(92 93)
2(94 95)
2(96 97)
2(98 99)
2(100 101)
2(102 103)
2(104 105)
2(106 107)
2(108 109)
2(110 111)
2(112 113)
2(114 115)
2(116 117)
2(118 119)
2(120 121)
2(122 123)
2(124 125)
2(126 127)
2(128 129)
2(130 131)
2(132 133)
2(134 135)
2(136 137)
2(138 139)
2(140 141)
2(142 143)
2(144 145)
2(146 147)
2(148 149)
2(150 151)
2(152 153)
2(154 155)
2(156 157)
2(158 159)
2(160 161)
2(162 163)
2(164 165)
2(166 167)
2(168 169)
2(170 171)
2(172 173)
2(174 175)
2(176 177)
2(178 179)
2(180 181)
2(182 183)
2(184 185)
2(186 187)
2(188 189)
2(190 191)
2(192 193)
2(194 195)
2(194 196)
2(197 198)
2(199 200)
2(201 202)
2(201 203)
2(204 205)
2(204 198)
2(200 206)
2(207 208)
2(209 206)
2(193 196)
2(202 203)
2(210 211)
2(212 213)
2(212 214)
2(215 216)
2(217 218)
2(219 220)
2(219 221)
2(222 223)
2(222 216)
2(218 224)
2(225 226)
2(227 224)
2(211 214)
2(220 221)
2(228 229)
2(228 230)
2(231 232)
2(229 230)
2(233 234)
2(233 235)
2(236 237)
2(238 239)
2(238 240)
2(241 242)
2(237 240)
2(235 243)
2(242 244)
2(245 244)
2(246 247)
2(248 249)
2(248 250)
2(251 252)
2(251 253)
2(254 255)
2(256 250)
2(257 258)
2(252 259)
2(260 261)
2(260 262)
2(258 259)
2(263 253)
2(247 262)
2(264 265)
2(266 267)
2(266 268)
2(269 270)
2(269 271)
2(272 273)
2(272 274)
2(275 276)
2(277 278)
2(265 271)
2(279 280)
2(279 278)
2(281 268)
2(280 274)
2(282 283)
2(284 285)
2(284 286)
2(287 288)
2(287 289)
2(290 291)
2(292 286)
2(293 294)
2(288 295)
2(296 297)
2(296 298)
2(294 295)
2(299 289)
2(283 298)
2(0 300)
2(18 301)
2(19 302)
2(20 303)
2(22 304)
2(305 226)
2(306 290)
2(30 307)
2(32 308)
2(34 291)
2(309 254)
2(42 255)
2(3 225)
2(46 207)
2(48 310)
2(311 276)
2(312 236)
2(56 239)
2(60 275)
2(313 208)
2(17 285)
2(1 314)
2(70 315)
2(76 316)
2(78 267)
2(317 318)
2(319 320)
2(321 282)
2(322 323)
2(324 325)
2(82 326)
2(327 192)
2(86 328)
2(88 195)
2(329 330)
2(331 332)
2(333 334)
2(335 336)
2(337 338)
2(339 246)
2(96 340)
2(98 213)
2(341 342)
2(343 344)
2(345 346)
2(106 249)
2(112 232)
2(347 348)
2(349 350)
2(351 352)
2(353 354)
2(355 356)
2(357 264)
2(358 359)
2(360 361)
2(362 363)
2(364 231)
2(365 366)
2(367 368)
2(369 370)
2(371 372)
2(373 374)
2(375 376)
2(377 378)
2(379 210)
2(380 381)
2(382 383)
2(384 385)
2(386 387)
2(388 389)
2(390 391)
2(392 393)
2(394 395)
2(396 397)
2(77 398)
2(23 399)
2(97 400)
2(31 401)
2(83 402)
2(33 403)
2(71 404)
2(21 405)
2(87 406)
2(49 407)
)

// featurePointNormals

96
(
3(192 193 196)
3(194 195 196)
3(197 198 200)
3(199 200 203)
3(201 202 203)
3(204 205 198)
3(204 205 206)
3(207 208 206)
3(210 211 214)
3(212 213 214)
3(215 216 218)
3(217 218 221)
3(219 220 221)
3(222 223 216)
3(222 223 224)
3(225 226 224)
3(228 229 230)
3(228 229 232)
3(229 230 235)
3(233 234 235)
3(236 237 240)
3(238 239 240)
3(241 242 240)
3(235 243 244)
3(246 247 250)
3(248 249 250)
3(251 252 253)
3(251 253 255)
3(256 250 258)
3(257 258 259)
3(260 261 262)
3(260 261 259)
3(264 265 268)
3(266 267 268)
3(269 270 271)
3(269 270 274)
3(269 271 273)
3(272 273 274)
3(275 276 278)
3(279 280 278)
3(282 283 286)
3(284 285 286)
3(287 288 289)
3(287 289 291)
3(292 286 294)
3(293 294 295)
3(296 297 298)
3(296 297 295)
3(2 3 300)
3(0 1 300)
3(16 17 301)
3(18 19 301)
3(287 288 19)
3(20 21 303)
3(219 220 20)
3(22 23 304)
3(279 280 22)
3(225 226 305)
3(290 291 306)
3(30 31 307)
3(251 252 30)
3(32 33 308)
3(236 237 32)
3(34 35 291)
3(275 276 311)
3(254 255 309)
3(42 43 255)
3(207 208 46)
3(46 47 207)
3(48 49 310)
3(201 202 48)
3(238 239 312)
3(56 57 239)
3(60 61 275)
3(284 285 17)
3(210 211 1)
3(70 71 315)
3(192 193 70)
3(282 283 76)
3(76 77 316)
3(78 79 267)
3(266 267 78)
3(82 83 326)
3(246 247 82)
3(194 195 327)
3(212 213 98)
3(228 230 86)
3(86 87 328)
3(88 89 195)
3(248 249 339)
3(231 232 112)
3(264 265 96)
3(96 97 340)
3(98 99 213)
3(106 107 249)
3(112 113 232)
)

// featurePointEdges

96
(
3(98 108 96)
3(97 99 98)
3(100 104 99)
3(102 105 100)
3(101 109 102)
3(103 108 104)
3(105 107 103)
3(107 109 106)
3(112 122 110)
3(111 113 112)
3(114 118 113)
3(116 119 114)
3(115 123 116)
3(117 122 118)
3(119 121 117)
3(121 123 120)
3(124 127 125)
3(126 128 124)
3(129 135 127)
3(128 133 129)
3(132 134 130)
3(131 137 132)
3(134 136 133)
3(136 137 135)
3(140 151 138)
3(139 144 140)
3(141 146 142)
3(143 150 142)
3(145 148 144)
3(146 149 145)
3(147 151 148)
3(149 150 147)
3(154 161 152)
3(153 164 154)
3(155 161 156)
3(158 160 155)
3(157 164 156)
3(157 165 158)
3(160 163 159)
3(162 165 163)
3(168 179 166)
3(167 172 168)
3(169 174 170)
3(171 178 170)
3(173 176 172)
3(174 177 173)
3(175 179 176)
3(177 178 175)
3(1 192 180)
3(0 201 180)
3(181 200 8)
3(9 182 181)
3(186 169 182)
3(10 261 183)
3(185 115 183)
3(11 255 184)
3(195 162 184)
3(192 120 185)
3(189 171 186)
3(15 257 187)
3(190 141 187)
3(16 259 188)
3(196 130 188)
3(17 254 189)
3(195 159 198)
3(191 143 190)
3(21 258 191)
3(199 106 193)
3(23 260 193)
3(24 263 194)
3(199 101 194)
3(197 131 196)
3(28 262 197)
3(30 256 198)
3(207 167 200)
3(244 110 201)
3(35 260 202)
3(211 96 202)
3(203 166 207)
3(38 254 203)
3(39 255 204)
3(232 153 204)
3(41 258 210)
3(219 138 210)
3(213 97 211)
3(244 111 221)
3(212 125 236)
3(43 262 212)
3(44 263 213)
3(225 139 219)
3(236 126 226)
3(220 152 232)
3(48 256 220)
3(49 261 221)
3(53 257 225)
3(56 259 226)
)

// regionEdges
0()


// ************************************************************************* //
