/*--------------------------------*- C++ -*----------------------------------*\
  =========                 |
  \\      /  F ield         | OpenFOAM: The Open Source CFD Toolbox
   \\    /   O peration     | Website:  https://openfoam.org
    \\  /    A nd           | Version:  7
     \\/     M anipulation  |
\*---------------------------------------------------------------------------*/
FoamFile
{
    version     2.0;
    format      ascii;
    class       extendedFeatureEdgeMesh;
    location    "constant/extendedFeatureEdgeMesh";
    object      vessel.extendedFeatureEdgeMesh;
}
// * * * * * * * * * * * * * * * * * * * * * * * * * * * * * * * * * * * * * //

// points

746
(
(15.0705 137.502 105.684)
(14.9761 138.26 105.864)
(14.9444 139.041 105.924)
(14.9761 139.822 105.864)
(15.6913 135.594 104.501)
(15.4336 136.148 104.992)
(15.2245 136.791 105.391)
(16.6722 134.609 102.632)
(16.3202 134.812 103.303)
(15.9898 135.144 103.932)
(17.7504 134.812 100.577)
(17.3984 134.609 101.248)
(17.0353 134.541 101.94)
(18.637 136.148 98.8873)
(18.3793 135.594 99.3784)
(18.0807 135.144 99.9474)
(19.0944 138.26 98.0156)
(19.0001 137.502 98.1953)
(18.8461 136.791 98.4889)
(19.0001 140.58 98.1953)
(19.0944 139.822 98.0156)
(19.1262 139.041 97.955)
(18.3793 142.488 99.3784)
(18.637 141.933 98.8873)
(18.8461 141.291 98.4889)
(17.3984 143.473 101.248)
(17.7504 143.27 100.577)
(18.0807 142.938 99.9474)
(16.3202 143.27 103.303)
(16.6722 143.473 102.632)
(17.0353 143.541 101.94)
(15.4336 141.933 104.992)
(15.6913 142.488 104.501)
(15.9898 142.938 103.932)
(15.0705 140.58 105.684)
(15.2245 141.291 105.391)
(143.984 0.0408991 147.717)
(144.885 0.0408991 140.285)
(144.885 169.041 140.285)
(143.984 169.041 147.717)
(144.884 0.0408991 132.799)
(144.884 169.041 132.799)
(143.98 0.0408991 125.367)
(143.98 169.041 125.367)
(142.187 0.0408991 118.098)
(142.187 169.041 118.098)
(139.532 0.0408991 111.099)
(139.532 169.041 111.099)
(136.052 0.0408991 104.47)
(136.052 169.041 104.47)
(131.798 0.0408991 98.3098)
(131.798 169.041 98.3098)
(126.833 0.0408991 92.7067)
(126.833 169.041 92.7067)
(121.229 0.0408991 87.7429)
(121.229 169.041 87.7429)
(115.067 0.0408991 83.4908)
(115.067 169.041 83.4908)
(108.438 0.0408991 80.0123)
(108.438 169.041 80.0123)
(101.438 0.0408991 77.3581)
(101.438 169.041 77.3581)
(94.1691 0.0408991 75.567)
(94.1691 169.041 75.567)
(86.7372 0.0408991 74.6651)
(86.7372 169.041 74.6651)
(79.2508 0.0408991 74.6655)
(79.2508 169.041 74.6655)
(71.819 0.0408991 75.5683)
(71.819 169.041 75.5683)
(64.5502 0.0408991 77.3602)
(64.5502 169.041 77.3602)
(57.5504 0.0408991 80.0151)
(57.5504 169.041 80.0151)
(50.9216 0.0408991 83.4943)
(50.9216 169.041 83.4943)
(44.7604 0.0408991 87.7472)
(44.7604 169.041 87.7472)
(39.1567 0.0408991 92.7115)
(39.1567 169.041 92.7115)
(29.9366 0.0408991 104.481)
(26.4568 0.0408991 111.113)
(34.1906 0.0408991 98.3174)
(23.802 0.0408991 118.116)
(29.9366 169.041 104.481)
(34.1906 169.041 98.3174)
(26.4568 169.041 111.113)
(23.802 169.041 118.116)
(22.0109 0.0408991 125.387)
(22.0109 169.041 125.387)
(21.1099 0.0408991 132.819)
(21.1099 169.041 132.819)
(21.1111 0.0408991 140.306)
(21.1111 169.041 140.306)
(22.0147 0.0408991 147.737)
(22.0147 169.041 147.737)
(23.8074 0.0408991 155.006)
(23.8074 169.041 155.006)
(26.4631 0.0408991 162.006)
(26.4631 169.041 162.006)
(29.9431 0.0408991 168.634)
(29.9431 169.041 168.634)
(34.1966 0.0408991 174.795)
(34.1966 169.041 174.795)
(39.1617 0.0408991 180.398)
(39.1617 169.041 180.398)
(44.7659 0.0408991 185.361)
(44.7659 169.041 185.361)
(50.9275 0.0408991 189.614)
(50.9275 169.041 189.614)
(57.5567 0.0408991 193.092)
(57.5567 169.041 193.092)
(64.5568 0.0408991 195.746)
(64.5568 169.041 195.746)
(71.8258 0.0408991 197.537)
(71.8258 169.041 197.537)
(79.2577 0.0408991 198.439)
(79.2577 169.041 198.439)
(86.7441 0.0408991 198.439)
(86.7441 169.041 198.439)
(94.1758 0.0408991 197.536)
(94.1758 169.041 197.536)
(101.445 0.0408991 195.744)
(101.445 169.041 195.744)
(108.445 0.0408991 193.089)
(108.445 169.041 193.089)
(115.073 0.0408991 189.61)
(115.073 169.041 189.61)
(121.234 0.0408991 185.357)
(121.234 169.041 185.357)
(126.838 0.0408991 180.393)
(126.838 169.041 180.393)
(131.804 169.041 174.787)
(136.058 169.041 168.623)
(139.538 169.041 161.992)
(142.193 169.041 154.989)
(136.058 0.0408991 168.623)
(131.804 0.0408991 174.787)
(142.193 0.0408991 154.989)
(139.538 0.0408991 161.992)
(145.02 3.81228 170.835)
(145.372 3.60926 170.164)
(145.735 3.5409 169.472)
(146.098 3.60926 168.78)
(144.133 5.14836 172.525)
(144.391 4.5937 172.033)
(144.689 4.14378 171.464)
(143.676 7.25948 173.396)
(143.77 6.50181 173.217)
(143.924 5.7909 172.923)
(143.77 9.57999 173.217)
(143.676 8.82232 173.396)
(143.644 8.0409 173.457)
(144.391 11.4881 172.033)
(144.133 10.9334 172.525)
(143.924 10.2909 172.923)
(145.372 12.4725 170.164)
(145.02 12.2695 170.835)
(144.689 11.938 171.464)
(146.45 12.2695 168.109)
(146.098 12.4725 168.78)
(145.735 12.5409 169.472)
(147.336 10.9334 166.42)
(147.079 11.4881 166.911)
(146.78 11.938 167.48)
(147.794 8.82232 165.548)
(147.699 9.57999 165.728)
(147.545 10.2909 166.021)
(147.699 6.50181 165.728)
(147.794 7.25948 165.548)
(147.826 8.0409 165.487)
(147.079 4.5937 166.911)
(147.336 5.14836 166.42)
(147.545 5.7909 166.021)
(146.45 3.81228 168.109)
(146.78 4.14378 167.48)
(130.084 8.82232 156.255)
(129.99 9.57999 156.435)
(129.835 10.2909 156.728)
(129.626 10.9334 157.127)
(129.369 11.4881 157.618)
(129.07 11.938 158.187)
(128.74 12.2695 158.816)
(128.388 12.4725 159.487)
(128.025 12.5409 160.179)
(127.662 12.4725 160.871)
(127.31 12.2695 161.542)
(126.979 11.938 162.171)
(126.681 11.4881 162.74)
(126.423 10.9334 163.232)
(126.214 10.2909 163.63)
(126.06 9.57999 163.924)
(125.965 8.82232 164.103)
(125.934 8.0409 164.164)
(125.965 7.25948 164.103)
(126.06 6.50181 163.924)
(126.214 5.7909 163.63)
(126.423 5.14836 163.232)
(126.681 4.5937 162.74)
(126.979 4.14378 162.171)
(127.31 3.81228 161.542)
(127.662 3.60926 160.871)
(128.025 3.5409 160.179)
(128.388 3.60926 159.487)
(128.74 3.81228 158.816)
(129.07 4.14378 158.187)
(129.369 4.5937 157.618)
(129.626 5.14836 157.127)
(129.835 5.7909 156.728)
(129.99 6.50181 156.435)
(130.084 7.25948 156.255)
(130.116 8.0409 156.194)
(127.389 4.28213 161.391)
(127.702 4.10167 160.794)
(127.095 4.5768 161.95)
(126.83 4.97672 162.456)
(126.601 5.46975 162.893)
(126.415 6.0409 163.247)
(126.278 6.67282 163.508)
(126.194 7.34631 163.667)
(126.166 8.0409 163.721)
(126.194 8.73549 163.667)
(126.278 9.40898 163.508)
(126.415 10.0409 163.247)
(126.601 10.6121 162.893)
(126.83 11.1051 162.456)
(127.095 11.505 161.95)
(127.389 11.7997 161.391)
(127.702 11.9801 160.794)
(128.025 12.0409 160.179)
(128.347 11.9801 159.564)
(128.66 11.7997 158.968)
(128.954 11.505 158.408)
(129.219 11.1051 157.902)
(129.448 10.6121 157.466)
(129.634 10.0409 157.112)
(129.771 9.40898 156.851)
(129.855 8.73549 156.691)
(129.883 8.0409 156.637)
(129.855 7.34631 156.691)
(129.771 6.67282 156.851)
(129.634 6.0409 157.112)
(129.448 5.46975 157.466)
(129.219 4.97672 157.902)
(128.954 4.5768 158.408)
(128.66 4.28213 158.968)
(128.347 4.10167 159.564)
(128.025 4.0409 160.179)
(38.5754 138.26 108.238)
(38.481 137.502 108.418)
(38.327 136.791 108.711)
(38.1179 136.148 109.109)
(37.8602 135.594 109.601)
(37.5617 135.144 110.17)
(37.2313 134.812 110.799)
(36.8793 134.609 111.47)
(36.5162 134.541 112.162)
(36.1531 134.609 112.854)
(35.8011 134.812 113.525)
(35.4708 135.144 114.154)
(35.1722 135.594 114.723)
(34.9145 136.148 115.215)
(34.7054 136.791 115.613)
(34.5514 137.502 115.906)
(34.4571 138.26 116.086)
(34.4253 139.041 116.147)
(34.4571 139.822 116.086)
(34.5514 140.58 115.906)
(34.7054 141.291 115.613)
(34.9145 141.933 115.215)
(35.1722 142.488 114.723)
(35.4708 142.938 114.154)
(35.8011 143.27 113.525)
(36.1531 143.473 112.854)
(36.5162 143.541 112.162)
(36.8793 143.473 111.47)
(37.2313 143.27 110.799)
(37.5617 142.938 110.17)
(37.8602 142.488 109.601)
(38.1179 141.933 109.109)
(38.327 141.291 108.711)
(38.481 140.58 108.418)
(38.5754 139.822 108.238)
(38.6071 139.041 108.177)
(34.9066 141.041 115.229)
(35.0924 141.612 114.875)
(34.7697 140.409 115.49)
(34.6859 139.736 115.65)
(34.6576 139.041 115.704)
(34.6859 138.346 115.65)
(34.7697 137.673 115.49)
(34.9066 137.041 115.229)
(35.0924 136.47 114.875)
(35.3215 135.977 114.439)
(35.5869 135.577 113.933)
(35.8805 135.282 113.373)
(36.1935 135.102 112.777)
(36.5162 135.041 112.162)
(36.839 135.102 111.547)
(37.1519 135.282 110.951)
(37.4455 135.577 110.391)
(37.7109 135.977 109.885)
(37.94 136.47 109.449)
(38.1258 137.041 109.094)
(38.2627 137.673 108.834)
(38.3466 138.346 108.674)
(38.3748 139.041 108.62)
(38.3466 139.736 108.674)
(38.2627 140.409 108.834)
(38.1258 141.041 109.094)
(37.94 141.612 109.449)
(37.7109 142.105 109.885)
(37.4455 142.505 110.391)
(37.1519 142.8 110.951)
(36.839 142.98 111.547)
(36.5162 143.041 112.162)
(36.1935 142.98 112.777)
(35.8805 142.8 113.373)
(35.5869 142.505 113.933)
(35.3215 142.105 114.439)
(28.2797 143.524 107.398)
(28.4641 143.473 107.054)
(30.2962 139.822 103.894)
(30.3232 139.434 103.85)
(30.2516 140.204 103.966)
(30.1893 140.58 104.067)
(30.1103 140.944 104.195)
(30.016 141.291 104.35)
(29.9366 141.537 104.481)
(29.7833 141.933 104.736)
(29.5004 142.488 105.214)
(29.1782 142.938 105.771)
(28.6481 143.387 106.717)
(28.8287 143.27 106.39)
(29.0058 143.12 106.074)
(28.0966 143.541 107.744)
(27.916 143.524 108.091)
(27.7379 143.473 108.438)
(27.565 143.387 108.781)
(27.3984 143.27 109.116)
(27.239 143.12 109.441)
(27.0873 142.938 109.755)
(26.8124 142.488 110.337)
(26.5798 141.933 110.841)
(26.4516 141.517 111.124)
(26.3944 141.291 111.252)
(26.3204 140.942 111.418)
(26.2596 140.58 111.555)
(26.2121 140.206 111.664)
(26.1779 139.822 111.742)
(26.1573 139.432 111.789)
(26.1505 139.041 111.805)
(26.1573 138.649 111.789)
(26.1779 138.26 111.742)
(26.2122 137.875 111.663)
(26.2596 137.502 111.555)
(26.3204 137.14 111.418)
(26.3944 136.791 111.252)
(26.4568 136.546 111.113)
(26.5798 136.148 110.841)
(26.8124 135.594 110.337)
(27.0873 135.144 109.755)
(27.7379 134.609 108.438)
(27.5658 134.694 108.779)
(27.3984 134.812 109.116)
(27.2384 134.963 109.442)
(28.2807 134.558 107.396)
(28.0966 134.541 107.744)
(27.9149 134.558 108.093)
(28.6468 134.694 106.719)
(28.4641 134.609 107.054)
(29.5004 135.594 105.214)
(29.1782 135.144 105.771)
(29.0067 134.963 106.073)
(28.8287 134.812 106.39)
(29.9431 136.564 104.47)
(29.7833 136.148 104.736)
(30.1107 137.14 104.195)
(30.016 136.791 104.35)
(30.2512 137.875 103.966)
(30.1893 137.502 104.067)
(30.3323 139.041 103.835)
(30.3233 138.648 103.85)
(30.2962 138.26 103.894)
(139.783 9.20713 161.441)
(139.817 8.82232 161.362)
(139.735 9.57999 161.549)
(139.675 9.9419 161.686)
(139.838 8.43347 161.315)
(139.844 8.0409 161.299)
(139.838 7.6473 161.315)
(139.817 7.25948 161.362)
(139.783 6.8777 161.44)
(139.735 6.50181 161.549)
(136.058 10.5365 168.623)
(136.212 10.9334 168.368)
(136.495 11.4881 167.89)
(136.817 11.938 167.334)
(136.988 12.1188 167.031)
(137.166 12.2695 166.714)
(137.348 12.388 166.385)
(137.531 12.4725 166.05)
(137.714 12.5237 165.708)
(137.898 12.5409 165.36)
(138.08 12.5236 165.011)
(138.257 12.4725 164.666)
(138.429 12.3879 164.325)
(138.597 12.2695 163.988)
(138.757 12.1187 163.661)
(138.908 11.938 163.349)
(139.183 11.4881 162.768)
(139.415 10.9334 162.263)
(139.543 10.5176 161.98)
(139.601 10.2909 161.852)
(135.806 6.50181 169.038)
(135.744 6.87595 169.138)
(135.884 6.13948 168.909)
(135.699 7.25948 169.211)
(135.672 7.64955 169.254)
(135.663 8.0409 169.269)
(135.672 8.43265 169.254)
(135.699 8.82232 169.211)
(135.744 9.20677 169.138)
(135.806 9.57999 169.038)
(135.884 9.94209 168.909)
(135.979 10.2909 168.754)
(139.674 6.13803 161.687)
(139.601 5.79089 161.852)
(139.538 5.54529 161.992)
(139.415 5.14836 162.263)
(136.817 4.14378 167.334)
(136.495 4.5937 167.89)
(139.183 4.5937 162.768)
(138.908 4.14378 163.349)
(138.756 3.9622 163.663)
(138.597 3.81228 163.988)
(138.43 3.69459 164.323)
(138.257 3.60926 164.666)
(138.079 3.55797 165.013)
(137.898 3.5409 165.36)
(137.715 3.55793 165.706)
(137.531 3.60926 166.05)
(137.347 3.69433 166.387)
(137.166 3.81228 166.714)
(136.989 3.96225 167.03)
(136.212 5.14836 168.368)
(136.052 5.56422 168.634)
(135.979 5.7909 168.754)
(133.896 8.43225 168.322)
(133.923 8.82232 168.279)
(137.96 9.57999 160.617)
(138.008 9.2041 160.508)
(137.899 9.94377 160.755)
(137.826 10.2909 160.921)
(137.641 10.9334 161.332)
(137.41 11.4881 161.837)
(137.135 11.938 162.419)
(136.984 12.1196 162.733)
(136.825 12.2695 163.059)
(136.659 12.3872 163.393)
(136.486 12.4725 163.736)
(136.308 12.5238 164.083)
(136.127 12.5409 164.431)
(135.944 12.5239 164.777)
(135.76 12.4725 165.12)
(135.576 12.3875 165.457)
(135.395 12.2695 165.785)
(135.217 12.1195 166.1)
(135.044 11.938 166.404)
(134.959 11.8339 166.552)
(134.721 11.4881 166.96)
(134.438 10.9334 167.437)
(134.204 10.2909 167.823)
(133.968 9.20585 168.206)
(134.03 9.57999 168.106)
(134.109 9.94231 167.978)
(133.887 8.0409 168.337)
(133.896 7.64915 168.322)
(133.923 7.25948 168.279)
(133.968 6.87502 168.206)
(134.03 6.50181 168.106)
(134.109 6.13971 167.978)
(134.204 5.7909 167.823)
(134.438 5.14836 167.437)
(134.721 4.5937 166.96)
(134.955 4.25278 166.559)
(135.044 4.14378 166.404)
(135.216 3.96299 166.102)
(135.395 3.81228 165.785)
(135.577 3.69383 165.456)
(135.76 3.60926 165.12)
(135.943 3.55814 164.779)
(136.127 3.5409 164.431)
(136.309 3.55815 164.082)
(136.486 3.60926 163.736)
(136.658 3.69385 163.395)
(136.825 3.81228 163.059)
(136.985 3.96307 162.732)
(137.135 4.14378 162.419)
(137.41 4.5937 161.837)
(137.641 5.14836 161.332)
(137.826 5.7909 160.921)
(138.041 7.25948 160.43)
(138.007 6.87467 160.509)
(137.96 6.50181 160.617)
(137.9 6.13989 160.755)
(138.041 8.82232 160.43)
(138.062 8.4345 160.383)
(138.068 8.0409 160.368)
(138.062 7.64833 160.383)
(144.849 12.0409 169.007)
(144.526 11.9801 169.622)
(144.214 11.7997 170.219)
(143.92 11.505 170.778)
(143.654 11.1051 171.284)
(143.425 10.6121 171.721)
(143.24 10.0409 172.075)
(143.103 9.40898 172.336)
(143.019 8.73549 172.496)
(142.99 8.0409 172.549)
(143.019 7.34631 172.496)
(143.103 6.67282 172.336)
(143.24 6.0409 172.075)
(143.425 5.46975 171.721)
(143.654 4.97672 171.284)
(143.92 4.5768 170.778)
(144.214 4.28213 170.219)
(144.526 4.10167 169.622)
(144.849 4.0409 169.007)
(145.172 4.10167 168.392)
(145.485 4.28213 167.796)
(145.778 4.5768 167.236)
(146.044 4.97672 166.731)
(146.273 5.46975 166.294)
(146.459 6.0409 165.94)
(146.596 6.67282 165.679)
(146.68 7.34631 165.519)
(146.708 8.0409 165.465)
(146.68 8.73549 165.519)
(146.596 9.40898 165.679)
(146.459 10.0409 165.94)
(146.273 10.6121 166.294)
(146.044 11.1051 166.731)
(145.778 11.505 167.236)
(145.485 11.7997 167.796)
(145.172 11.9801 168.392)
(82.9974 2.0409 196.552)
(86.6911 2.0409 196.438)
(64.8083 2.0409 193.729)
(71.9725 2.0409 195.531)
(79.3038 2.0409 196.438)
(45.382 2.0409 183.297)
(51.4115 2.0409 187.565)
(57.9198 2.0409 191.06)
(31.0359 2.0409 166.552)
(35.1164 2.0409 172.71)
(39.9227 2.0409 178.32)
(23.7075 2.0409 145.756)
(25.2879 2.0409 152.972)
(27.7431 2.0409 159.939)
(24.3865 2.0409 123.716)
(23.2534 2.0409 131.016)
(23.0259 2.0409 138.4)
(32.9813 2.0409 103.41)
(29.2876 2.0409 109.808)
(26.4081 2.0409 116.611)
(48.331 2.0409 87.5804)
(42.5757 2.0409 92.2117)
(37.4331 2.0409 97.5151)
(68.3626 2.0409 78.3644)
(61.3229 2.0409 80.6039)
(54.6118 2.0409 83.6915)
(90.3707 2.0409 77.007)
(82.9974 2.0409 76.5522)
(75.6241 2.0409 77.007)
(111.383 2.0409 83.6915)
(104.672 2.0409 80.6039)
(97.6322 2.0409 78.3644)
(128.562 2.0409 97.5151)
(123.419 2.0409 92.2117)
(117.664 2.0409 87.5804)
(139.587 2.0409 116.611)
(136.707 2.0409 109.808)
(133.014 2.0409 103.41)
(142.969 2.0409 138.4)
(142.742 2.0409 131.016)
(141.608 2.0409 123.716)
(138.252 2.0409 159.939)
(140.707 2.0409 152.972)
(142.287 2.0409 145.756)
(126.072 2.0409 178.32)
(130.878 2.0409 172.71)
(134.959 2.0409 166.552)
(108.075 2.0409 191.06)
(114.583 2.0409 187.565)
(120.613 2.0409 183.297)
(94.0224 2.0409 195.531)
(101.187 2.0409 193.729)
(82.9974 167.041 196.552)
(79.3038 167.041 196.438)
(101.187 167.041 193.729)
(94.0224 167.041 195.531)
(86.6911 167.041 196.438)
(120.613 167.041 183.297)
(114.583 167.041 187.565)
(108.075 167.041 191.06)
(134.959 167.041 166.552)
(130.878 167.041 172.71)
(126.072 167.041 178.32)
(142.287 167.041 145.756)
(140.707 167.041 152.972)
(138.252 167.041 159.939)
(141.608 167.041 123.716)
(142.742 167.041 131.016)
(142.969 167.041 138.4)
(133.014 167.041 103.41)
(136.707 167.041 109.808)
(139.587 167.041 116.611)
(117.664 167.041 87.5804)
(123.419 167.041 92.2117)
(128.562 167.041 97.5151)
(97.6322 167.041 78.3644)
(104.672 167.041 80.6039)
(111.383 167.041 83.6915)
(75.6241 167.041 77.007)
(82.9974 167.041 76.5522)
(90.3707 167.041 77.007)
(54.6118 167.041 83.6915)
(61.3229 167.041 80.6039)
(68.3626 167.041 78.3644)
(37.4331 167.041 97.5151)
(42.5757 167.041 92.2117)
(48.331 167.041 87.5804)
(26.4081 167.041 116.611)
(29.2876 167.041 109.808)
(32.9813 167.041 103.41)
(23.0259 167.041 138.4)
(23.2534 167.041 131.016)
(24.3865 167.041 123.716)
(27.7431 167.041 159.939)
(25.2879 167.041 152.972)
(23.7075 167.041 145.756)
(39.9227 167.041 178.32)
(35.1164 167.041 172.71)
(31.0359 167.041 166.552)
(57.9198 167.041 191.06)
(51.4115 167.041 187.565)
(45.382 167.041 183.297)
(71.9725 167.041 195.531)
(64.8083 167.041 193.729)
(31.2735 142.488 106.144)
(31.5572 141.933 105.667)
(30.4182 143.388 107.648)
(30.6003 143.27 107.32)
(30.2353 143.473 107.984)
(29.5091 143.473 109.368)
(29.686 143.524 109.022)
(29.8677 143.541 108.673)
(30.0518 143.524 108.325)
(30.7787 143.119 107.002)
(30.9505 142.938 106.701)
(31.7907 141.291 105.281)
(31.8858 140.942 105.126)
(31.9646 140.58 104.998)
(32.0268 140.207 104.898)
(32.072 139.822 104.825)
(32.0992 139.434 104.782)
(32.1083 139.041 104.767)
(32.0991 138.647 104.782)
(32.072 138.26 104.825)
(32.0272 137.878 104.897)
(31.9646 137.502 104.998)
(31.8853 137.138 105.127)
(30.9505 135.144 106.701)
(30.7777 134.962 107.004)
(31.7907 136.791 105.281)
(31.5572 136.148 105.667)
(31.2735 135.594 106.144)
(30.6003 134.812 107.32)
(30.4195 134.695 107.646)
(30.2353 134.609 107.984)
(30.0508 134.558 108.327)
(29.8677 134.541 108.673)
(29.6871 134.558 109.02)
(29.011 134.962 110.371)
(28.8596 135.144 110.685)
(29.5091 134.609 109.368)
(29.2876 134.725 109.808)
(29.17 134.812 110.045)
(28.5855 135.594 111.267)
(28.3537 136.148 111.772)
(28.1691 136.791 112.183)
(28.0955 137.139 112.349)
(28.035 137.502 112.487)
(27.9877 137.876 112.595)
(27.9537 138.26 112.674)
(27.9332 138.65 112.721)
(27.9264 139.041 112.737)
(27.9332 139.433 112.721)
(27.9537 139.822 112.674)
(27.9878 140.207 112.595)
(28.035 140.58 112.487)
(28.0955 140.942 112.349)
(28.1691 141.291 112.183)
(28.3537 141.933 111.772)
(28.5855 142.488 111.267)
(28.8596 142.938 110.685)
(29.0103 143.119 110.372)
(29.17 143.27 110.045)
(29.2876 143.357 109.808)
(19.7511 139.736 98.9162)
(19.7794 139.041 98.8624)
(19.6673 140.409 99.076)
(19.5304 141.041 99.337)
(19.3445 141.612 99.6911)
(19.1155 142.105 100.128)
(18.8501 142.505 100.633)
(18.5565 142.8 101.193)
(18.2435 142.98 101.789)
(17.9208 143.041 102.404)
(17.598 142.98 103.02)
(17.2851 142.8 103.616)
(16.9915 142.505 104.175)
(16.7261 142.105 104.681)
(16.497 141.612 105.118)
(16.3112 141.041 105.472)
(16.1743 140.409 105.733)
(16.0904 139.736 105.893)
(16.0622 139.041 105.946)
(16.0904 138.346 105.893)
(16.1743 137.673 105.733)
(16.3112 137.041 105.472)
(16.497 136.47 105.118)
(16.7261 135.977 104.681)
(16.9915 135.577 104.175)
(17.2851 135.282 103.616)
(17.598 135.102 103.02)
(17.9208 135.041 102.404)
(18.2435 135.102 101.789)
(18.5565 135.282 101.193)
(18.8501 135.577 100.633)
(19.1155 135.977 100.128)
(19.3445 136.47 99.6911)
(19.5304 137.041 99.337)
(19.6673 137.673 99.076)
(19.7511 138.346 98.9162)
)

// edges

746
(
(0 1)
(1 2)
(2 3)
(4 5)
(5 6)
(6 0)
(7 8)
(8 9)
(9 4)
(10 11)
(11 12)
(12 7)
(13 14)
(14 15)
(15 10)
(16 17)
(17 18)
(18 13)
(19 20)
(20 21)
(21 16)
(22 23)
(23 24)
(24 19)
(25 26)
(26 27)
(27 22)
(28 29)
(29 30)
(30 25)
(31 32)
(32 33)
(33 28)
(3 34)
(34 35)
(35 31)
(36 37)
(38 39)
(37 40)
(41 38)
(40 42)
(43 41)
(42 44)
(45 43)
(44 46)
(47 45)
(46 48)
(49 47)
(48 50)
(51 49)
(50 52)
(53 51)
(52 54)
(55 53)
(54 56)
(57 55)
(56 58)
(59 57)
(58 60)
(61 59)
(60 62)
(63 61)
(62 64)
(65 63)
(64 66)
(67 65)
(66 68)
(69 67)
(68 70)
(71 69)
(70 72)
(73 71)
(72 74)
(75 73)
(74 76)
(77 75)
(76 78)
(79 77)
(80 81)
(82 80)
(81 83)
(84 85)
(86 84)
(87 86)
(85 79)
(78 82)
(83 88)
(89 87)
(88 90)
(91 89)
(90 92)
(93 91)
(92 94)
(95 93)
(94 96)
(97 95)
(96 98)
(99 97)
(98 100)
(101 99)
(100 102)
(103 101)
(102 104)
(105 103)
(104 106)
(107 105)
(106 108)
(109 107)
(108 110)
(111 109)
(110 112)
(113 111)
(112 114)
(115 113)
(114 116)
(117 115)
(116 118)
(119 117)
(118 120)
(121 119)
(120 122)
(123 121)
(122 124)
(125 123)
(124 126)
(127 125)
(126 128)
(129 127)
(128 130)
(131 129)
(132 133)
(131 132)
(133 134)
(134 135)
(135 39)
(136 137)
(138 139)
(36 138)
(139 136)
(137 130)
(140 141)
(141 142)
(142 143)
(144 145)
(145 146)
(146 140)
(147 148)
(148 149)
(149 144)
(150 151)
(151 152)
(152 147)
(153 154)
(154 155)
(155 150)
(156 157)
(157 158)
(158 153)
(159 160)
(160 161)
(161 156)
(162 163)
(163 164)
(164 159)
(165 166)
(166 167)
(167 162)
(168 169)
(169 170)
(170 165)
(171 172)
(172 173)
(173 168)
(143 174)
(174 175)
(175 171)
(176 177)
(177 178)
(178 179)
(179 180)
(180 181)
(181 182)
(182 183)
(183 184)
(184 185)
(185 186)
(186 187)
(187 188)
(188 189)
(189 190)
(190 191)
(191 192)
(192 193)
(193 194)
(194 195)
(195 196)
(196 197)
(197 198)
(198 199)
(199 200)
(200 201)
(201 202)
(202 203)
(203 204)
(204 205)
(205 206)
(206 207)
(207 208)
(208 209)
(209 210)
(210 211)
(211 176)
(212 213)
(214 212)
(215 214)
(216 215)
(217 216)
(218 217)
(219 218)
(220 219)
(221 220)
(222 221)
(223 222)
(224 223)
(225 224)
(226 225)
(227 226)
(228 227)
(229 228)
(230 229)
(231 230)
(232 231)
(233 232)
(234 233)
(235 234)
(236 235)
(237 236)
(238 237)
(239 238)
(240 239)
(241 240)
(242 241)
(243 242)
(244 243)
(245 244)
(246 245)
(247 246)
(213 247)
(248 249)
(249 250)
(250 251)
(251 252)
(252 253)
(253 254)
(254 255)
(255 256)
(256 257)
(257 258)
(258 259)
(259 260)
(260 261)
(261 262)
(263 264)
(262 263)
(264 265)
(265 266)
(266 267)
(267 268)
(268 269)
(269 270)
(270 271)
(271 272)
(272 273)
(273 274)
(274 275)
(275 276)
(276 277)
(277 278)
(278 279)
(279 280)
(281 282)
(280 281)
(283 248)
(282 283)
(284 285)
(286 284)
(287 286)
(288 287)
(289 288)
(290 289)
(291 290)
(292 291)
(293 292)
(294 293)
(295 294)
(296 295)
(297 296)
(298 297)
(299 298)
(300 299)
(301 300)
(302 301)
(303 302)
(304 303)
(305 304)
(306 305)
(307 306)
(308 307)
(309 308)
(310 309)
(311 310)
(312 311)
(313 312)
(314 313)
(315 314)
(316 315)
(317 316)
(318 317)
(319 318)
(285 319)
(320 321)
(322 323)
(324 322)
(325 324)
(326 325)
(327 326)
(328 327)
(329 328)
(330 329)
(331 330)
(321 332)
(332 333)
(333 334)
(334 331)
(335 320)
(336 335)
(337 336)
(338 337)
(339 338)
(340 339)
(341 340)
(342 341)
(343 342)
(344 343)
(345 344)
(346 345)
(347 346)
(348 347)
(349 348)
(350 349)
(351 350)
(352 351)
(353 352)
(354 353)
(355 354)
(356 355)
(357 356)
(358 357)
(359 358)
(360 359)
(361 360)
(362 363)
(363 364)
(364 365)
(365 361)
(366 367)
(367 368)
(368 362)
(369 370)
(370 366)
(371 372)
(372 373)
(373 374)
(374 369)
(375 376)
(376 371)
(377 378)
(378 375)
(379 380)
(380 377)
(323 381)
(381 382)
(382 383)
(383 379)
(384 385)
(386 384)
(387 386)
(385 388)
(388 389)
(389 390)
(390 391)
(391 392)
(392 393)
(394 395)
(395 396)
(396 397)
(397 398)
(398 399)
(399 400)
(400 401)
(401 402)
(402 403)
(403 404)
(404 405)
(405 406)
(406 407)
(407 408)
(408 409)
(409 410)
(410 411)
(411 412)
(412 413)
(413 387)
(414 415)
(416 414)
(415 417)
(417 418)
(418 419)
(419 420)
(420 421)
(421 422)
(422 423)
(423 424)
(424 425)
(425 394)
(393 426)
(426 427)
(427 428)
(428 429)
(430 431)
(429 432)
(432 433)
(433 434)
(434 435)
(435 436)
(436 437)
(437 438)
(438 439)
(439 440)
(440 441)
(441 442)
(442 443)
(443 444)
(444 430)
(431 445)
(445 446)
(446 447)
(447 416)
(448 449)
(450 451)
(452 450)
(453 452)
(454 453)
(455 454)
(456 455)
(457 456)
(458 457)
(459 458)
(460 459)
(461 460)
(462 461)
(463 462)
(464 463)
(465 464)
(466 465)
(467 466)
(468 467)
(469 468)
(470 469)
(471 470)
(472 471)
(449 473)
(473 474)
(474 475)
(475 472)
(476 448)
(477 476)
(478 477)
(479 478)
(480 479)
(481 480)
(482 481)
(483 482)
(484 483)
(485 484)
(486 485)
(487 486)
(488 487)
(489 488)
(490 489)
(491 490)
(492 491)
(493 492)
(494 493)
(495 494)
(496 495)
(497 496)
(498 497)
(499 498)
(500 499)
(501 500)
(502 503)
(503 504)
(504 505)
(505 501)
(451 506)
(506 507)
(507 508)
(508 509)
(509 502)
(510 511)
(511 512)
(512 513)
(513 514)
(514 515)
(515 516)
(516 517)
(517 518)
(518 519)
(519 520)
(520 521)
(521 522)
(522 523)
(523 524)
(524 525)
(525 526)
(526 527)
(527 528)
(528 529)
(529 530)
(530 531)
(531 532)
(532 533)
(533 534)
(534 535)
(535 536)
(536 537)
(537 538)
(538 539)
(539 540)
(540 541)
(541 542)
(542 543)
(543 544)
(544 545)
(545 510)
(546 547)
(548 549)
(549 550)
(550 546)
(551 552)
(552 553)
(553 548)
(554 555)
(555 556)
(556 551)
(557 558)
(558 559)
(559 554)
(560 561)
(561 562)
(562 557)
(563 564)
(564 565)
(565 560)
(566 567)
(567 568)
(568 563)
(569 570)
(570 571)
(571 566)
(572 573)
(573 574)
(574 569)
(575 576)
(576 577)
(577 572)
(578 579)
(579 580)
(580 575)
(581 582)
(582 583)
(583 578)
(584 585)
(585 586)
(586 581)
(587 588)
(588 589)
(589 584)
(590 591)
(591 592)
(592 587)
(593 594)
(594 595)
(595 590)
(547 596)
(596 597)
(597 593)
(598 599)
(600 601)
(601 602)
(602 598)
(603 604)
(604 605)
(605 600)
(606 607)
(607 608)
(608 603)
(609 610)
(610 611)
(611 606)
(612 613)
(613 614)
(614 609)
(615 616)
(616 617)
(617 612)
(618 619)
(619 620)
(620 615)
(621 622)
(622 623)
(623 618)
(624 625)
(625 626)
(626 621)
(627 628)
(628 629)
(629 624)
(630 631)
(631 632)
(632 627)
(633 634)
(634 635)
(635 630)
(636 637)
(637 638)
(638 633)
(639 640)
(640 641)
(641 636)
(642 643)
(643 644)
(644 639)
(645 646)
(646 647)
(647 642)
(599 648)
(648 649)
(649 645)
(650 651)
(652 653)
(654 652)
(655 656)
(656 657)
(657 658)
(658 654)
(653 659)
(659 660)
(660 650)
(651 661)
(661 662)
(662 663)
(663 664)
(664 665)
(665 666)
(667 668)
(668 669)
(669 670)
(670 671)
(671 672)
(673 674)
(672 675)
(675 676)
(676 677)
(677 673)
(674 678)
(678 679)
(679 680)
(680 681)
(681 682)
(682 683)
(684 685)
(683 686)
(686 687)
(687 688)
(688 684)
(685 689)
(689 690)
(690 691)
(691 692)
(692 693)
(693 694)
(695 696)
(696 697)
(697 698)
(698 699)
(699 700)
(700 701)
(701 702)
(702 703)
(703 704)
(704 705)
(705 706)
(706 707)
(707 708)
(708 709)
(709 655)
(694 695)
(666 667)
(710 711)
(712 710)
(713 712)
(714 713)
(715 714)
(716 715)
(717 716)
(718 717)
(719 718)
(720 719)
(721 720)
(722 721)
(723 722)
(724 723)
(725 724)
(726 725)
(727 726)
(728 727)
(729 728)
(730 729)
(731 730)
(732 731)
(733 732)
(734 733)
(735 734)
(736 735)
(737 736)
(738 737)
(739 738)
(740 739)
(741 740)
(742 741)
(743 742)
(744 743)
(745 744)
(711 745)
)

// concaveStart mixedStart nonFeatureStart
0 0 0
// internalStart flatStart openStart multipleStart
320 746 746 746
// normals

1488
(
(-0.885498 1.98492e-05 -0.464644)
(-0.450008 -0.258839 0.85469)
(-0.885495 -1.49818e-05 -0.464649)
(-0.464078 -0.0871155 0.8815)
(-0.885495 1.49815e-05 -0.464649)
(-0.464076 0.0871138 0.881501)
(-0.885507 2.36248e-05 -0.464626)
(-0.32855 -0.70711 0.626139)
(-0.88548 -4.4861e-05 -0.464677)
(-0.381748 -0.573537 0.724793)
(-0.885498 2.03058e-05 -0.464644)
(-0.422302 -0.42267 0.80188)
(-0.885486 -6.0099e-07 -0.464667)
(-0.120253 -0.96593 0.229171)
(-0.885494 5.80832e-06 -0.464651)
(-0.196367 -0.906309 0.374225)
(-0.885504 1.87123e-05 -0.464631)
(-0.266501 -0.819167 0.50788)
(-0.885495 6.36362e-06 -0.464649)
(0.119041 -0.965929 -0.229806)
(-0.885511 -0 -0.464617)
(0.0392993 -0.99619 -0.0778557)
(-0.885487 -0 -0.464664)
(-0.040522 -0.99619 0.0772245)
(-0.885497 1.95367e-06 -0.464645)
(0.328566 -0.70708 -0.626165)
(-0.885496 5.08051e-06 -0.464648)
(0.266507 -0.819158 -0.507893)
(-0.885494 6.76774e-06 -0.46465)
(0.195159 -0.906307 -0.374862)
(-0.885498 1.20198e-06 -0.464644)
(0.447618 -0.258808 -0.855953)
(-0.885495 1.59977e-05 -0.464648)
(0.419914 -0.422613 -0.803163)
(-0.885503 -1.25599e-05 -0.464634)
(0.379524 -0.573613 -0.725899)
(-0.885498 -1.20198e-06 -0.464644)
(0.447617 0.258808 -0.855954)
(-0.885499 8.06715e-06 -0.464642)
(0.461678 0.087156 -0.882756)
(-0.885499 -8.06731e-06 -0.464642)
(0.461676 -0.0871577 -0.882756)
(-0.885497 -1.95366e-06 -0.464645)
(0.328569 0.70708 -0.626163)
(-0.885503 1.25597e-05 -0.464634)
(0.379489 0.573604 -0.725924)
(-0.885495 -1.5998e-05 -0.464648)
(0.419909 0.42262 -0.803162)
(-0.885495 -6.3636e-06 -0.464649)
(0.120252 0.96593 -0.22917)
(-0.885494 -6.76772e-06 -0.46465)
(0.196369 0.906307 -0.374227)
(-0.885496 -5.08049e-06 -0.464648)
(0.266506 0.819158 -0.507893)
(-0.885486 6.00988e-07 -0.464667)
(-0.121469 0.965929 0.228532)
(-0.885487 0 -0.464664)
(-0.0417298 0.996191 0.0765688)
(-0.885511 0 -0.464617)
(0.0405088 0.996192 -0.0771994)
(-0.885507 -2.36247e-05 -0.464626)
(-0.328554 0.70711 0.626137)
(-0.885504 -1.87123e-05 -0.464631)
(-0.266501 0.819167 0.50788)
(-0.885494 -5.8083e-06 -0.464651)
(-0.197581 0.906308 0.373587)
(-0.885498 -1.98492e-05 -0.464644)
(-0.450006 0.258839 0.854691)
(-0.885498 -2.03062e-05 -0.464644)
(-0.4223 0.422677 0.801877)
(-0.88548 4.48602e-05 -0.464677)
(-0.381709 0.573527 0.72482)
(0.992731 0 0.120351)
(-0 -1 -0)
(0.992731 0 0.120351)
(0 1 0)
(1 0 -0.000161018)
(0 -1 0)
(1 0 -0.000161018)
(0 1 -0)
(0.992689 0 -0.120698)
(0 -1 0)
(0.992689 0 -0.120698)
(0 1 0)
(0.970906 0 -0.239462)
(0 -1 0)
(0.970906 0 -0.239462)
(0 1 0)
(0.934966 0 -0.354738)
(0 -1 0)
(0.934966 0 -0.354738)
(0 1 0)
(0.885393 0 -0.464843)
(0 -1 0)
(0.885393 0 -0.464843)
(0 1 0)
(0.822917 0 -0.568162)
(0 -1 0)
(0.822917 0 -0.568162)
(0 1 0)
(0.748437 0 -0.663206)
(0 -1 0)