/*--------------------------------*- C++ -*----------------------------------*\
  =========                 |
  \\      /  F ield         | OpenFOAM: The Open Source CFD Toolbox
   \\    /   O peration     | Website:  https://openfoam.org
    \\  /    A nd           | Version:  7
     \\/     M anipulation  |
\*---------------------------------------------------------------------------*/
FoamFile
{
    version     2.0;
    format      ascii;
    class       featureEdgeMesh;
    location    "constant/triSurface";
    object      impeller.eMesh;
}
// * * * * * * * * * * * * * * * * * * * * * * * * * * * * * * * * * * * * * //


// points:

216
(
(87.1311 36.3689 149.509)
(89.1311 36.3689 149.509)
(89.1311 36.3689 159.509)
(89.1311 28.3689 159.509)
(89.1311 28.3689 149.509)
(87.1311 36.3689 159.509)
(87.1311 28.3689 159.509)
(87.1311 28.3689 149.509)
(82.7597 36.3689 145.831)
(83.7597 36.3689 147.563)
(75.0995 36.3689 152.563)
(75.0995 28.3689 152.563)
(83.7597 28.3689 147.563)
(74.0995 36.3689 150.831)
(74.0995 28.3689 150.831)
(82.7597 28.3689 145.831)
(92.5025 36.3689 147.563)
(93.5025 36.3689 145.831)
(101.163 36.3689 152.563)
(102.163 36.3689 150.831)
(93.5025 28.3689 145.831)
(92.5025 28.3689 147.563)
(102.163 28.3689 150.831)
(101.163 28.3689 152.563)
(93.5025 36.3689 141.938)
(92.5025 36.3689 140.206)
(92.5025 28.3689 140.206)
(93.5025 28.3689 141.938)
(101.163 36.3689 135.206)
(101.163 28.3689 135.206)
(102.163 36.3689 136.938)
(102.163 28.3689 136.938)
(89.1311 36.3689 138.259)
(87.1311 36.3689 138.259)
(89.1311 36.3689 128.259)
(89.1311 28.3689 128.259)
(87.1311 36.3689 128.259)
(87.1311 28.3689 128.259)
(89.1311 28.3689 138.259)
(87.1311 28.3689 138.259)
(83.7597 36.3689 140.206)
(82.7597 36.3689 141.938)
(82.7597 28.3689 141.938)
(83.7597 28.3689 140.206)
(74.0995 36.3689 136.938)
(74.0995 28.3689 136.938)
(75.0995 36.3689 135.206)
(75.0995 28.3689 135.206)
(81.1939 31.3689 146.735)
(81.1939 33.3689 146.735)
(81.1939 33.3689 141.034)
(81.1939 31.3689 141.034)
(82.7597 31.3689 141.938)
(82.1939 31.3689 148.467)
(83.7597 31.3689 147.563)
(87.1311 31.3689 136.451)
(87.1311 31.3689 138.259)
(82.7597 31.3689 145.831)
(83.7597 31.3689 140.206)
(94.0683 31.3689 139.302)
(92.5025 31.3689 140.206)
(95.0683 31.3689 146.735)
(93.5025 31.3689 145.831)
(82.1939 31.3689 139.302)
(89.1311 31.3689 138.259)
(93.5025 31.3689 141.938)
(95.0683 31.3689 141.034)
(87.1311 31.3689 149.509)
(87.1311 31.3689 151.317)
(89.1311 31.3689 151.317)
(89.1311 31.3689 149.509)
(92.5025 31.3689 147.563)
(94.0683 31.3689 148.467)
(89.1311 31.3689 136.451)
(82.7597 33.3689 141.938)
(82.7597 33.3689 145.831)
(87.1311 33.3689 151.317)
(87.1311 33.3689 149.509)
(83.7597 33.3689 140.206)
(82.1939 33.3689 139.302)
(87.1311 33.3689 136.451)
(87.1311 33.3689 138.259)
(95.0683 33.3689 141.034)
(93.5025 33.3689 141.938)
(89.1311 33.3689 149.509)
(83.7597 33.3689 147.563)
(92.5025 33.3689 147.563)
(94.0683 33.3689 148.467)
(89.1311 33.3689 151.317)
(92.5025 33.3689 140.206)
(93.5025 33.3689 145.831)
(89.1311 33.3689 138.259)
(89.1311 33.3689 136.451)
(82.1939 33.3689 148.467)
(94.0683 33.3689 139.302)
(95.0683 33.3689 146.735)
(80.8354 33.3689 145.623)
(80.8354 31.3689 145.623)
(80.6539 33.3689 144.469)
(80.6539 31.3689 144.469)
(80.6539 33.3689 143.3)
(80.6539 31.3689 143.3)
(80.8354 33.3689 142.146)
(80.8354 31.3689 142.146)
(82.9777 31.3689 149.333)
(85.9888 31.3689 136.697)
(83.8866 31.3689 150.068)
(84.8984 31.3689 150.652)
(85.9888 31.3689 151.072)
(93.2845 31.3689 138.435)
(95.4268 31.3689 145.623)
(82.9777 31.3689 138.435)
(83.8866 31.3689 137.701)
(84.8984 31.3689 137.117)
(95.4268 31.3689 142.146)
(95.6083 31.3689 144.469)
(90.2734 31.3689 151.072)
(91.3638 31.3689 150.652)
(95.6083 31.3689 143.3)
(93.2845 31.3689 149.333)
(92.3757 31.3689 150.068)
(90.2734 31.3689 136.697)
(91.3638 31.3689 137.117)
(92.3757 31.3689 137.701)
(85.9888 33.3689 151.072)
(84.8984 33.3689 137.117)
(83.8866 33.3689 137.701)
(82.9777 33.3689 138.435)
(85.9888 33.3689 136.697)
(95.4268 33.3689 142.146)
(92.3757 33.3689 150.068)
(93.2845 33.3689 149.333)
(90.2734 33.3689 151.072)
(91.3638 33.3689 150.652)
(91.3638 33.3689 137.117)
(90.2734 33.3689 136.697)
(82.9777 33.3689 149.333)
(83.8866 33.3689 150.068)
(84.8984 33.3689 150.652)
(93.2845 33.3689 138.435)
(92.3757 33.3689 137.701)
(95.4268 33.3689 145.623)
(95.6083 33.3689 144.469)
(95.6083 33.3689 143.3)
(85.1767 153.369 144.405)
(85.1311 153.369 143.884)
(85.312 153.369 144.911)
(85.533 153.369 145.384)
(85.833 153.369 145.813)
(86.2028 153.369 146.182)
(86.6311 153.369 146.482)
(87.105 153.369 146.704)
(87.6102 153.369 146.839)
(88.1311 153.369 146.884)
(88.652 153.369 146.839)
(89.1572 153.369 146.704)
(89.6311 153.369 146.482)
(90.0595 153.369 146.182)
(90.4292 153.369 145.813)
(90.7292 153.369 145.384)
(90.9502 153.369 144.911)
(91.0855 153.369 144.405)
(91.1311 153.369 143.884)
(91.0855 153.369 143.363)
(90.9502 153.369 142.858)
(90.7292 153.369 142.384)
(90.4292 153.369 141.956)
(90.0595 153.369 141.586)
(89.6311 153.369 141.286)
(89.1572 153.369 141.065)
(88.652 153.369 140.93)
(88.1311 153.369 140.884)
(87.6102 153.369 140.93)
(87.105 153.369 141.065)
(86.6311 153.369 141.286)
(86.2028 153.369 141.586)
(85.833 153.369 141.956)
(85.533 153.369 142.384)
(85.312 153.369 142.858)
(85.1767 153.369 143.363)
(85.1311 33.3689 143.884)
(85.1767 33.3689 143.363)
(85.312 33.3689 142.858)
(86.2028 33.3689 146.182)
(85.833 33.3689 145.813)
(86.6311 33.3689 146.482)
(85.533 33.3689 145.384)
(85.312 33.3689 144.911)
(85.1767 33.3689 144.405)
(85.533 33.3689 142.384)
(85.833 33.3689 141.956)
(86.2028 33.3689 141.586)
(86.6311 33.3689 141.286)
(88.652 33.3689 140.93)
(89.1572 33.3689 141.065)
(89.6311 33.3689 141.286)
(90.0595 33.3689 141.586)
(87.105 33.3689 141.065)
(87.6102 33.3689 140.93)
(88.1311 33.3689 140.884)
(90.7292 33.3689 145.384)
(90.4292 33.3689 145.813)
(90.9502 33.3689 144.911)
(90.0595 33.3689 146.182)
(89.6311 33.3689 146.482)
(89.1572 33.3689 146.704)
(88.652 33.3689 146.839)
(88.1311 33.3689 146.884)
(87.6102 33.3689 146.839)
(87.105 33.3689 146.704)
(90.4292 33.3689 141.956)
(90.7292 33.3689 142.384)
(90.9502 33.3689 142.858)
(91.0855 33.3689 143.363)
(91.1311 33.3689 143.884)
(91.0855 33.3689 144.405)
)


// edges:

264
(
(49 96)
(97 48)
(96 98)
(99 97)
(98 100)
(101 99)
(100 102)
(103 101)
(102 50)
(51 103)
(104 53)
(105 55)
(106 104)
(107 106)
(108 107)
(109 59)
(110 61)
(63 111)
(111 112)
(112 113)
(113 105)
(66 114)
(115 110)
(68 108)
(116 69)
(117 116)
(114 118)
(118 115)
(72 119)
(119 120)
(73 121)
(121 122)
(122 123)
(123 109)
(120 117)
(124 76)
(125 126)
(126 127)
(127 79)
(80 128)
(128 125)
(129 82)
(130 131)
(131 87)
(88 132)
(132 133)
(133 130)
(134 135)
(135 92)
(93 136)
(136 137)
(137 138)
(138 124)
(94 139)
(139 140)
(140 134)
(95 141)
(141 142)
(142 143)
(143 129)
(144 145)
(146 144)
(147 146)
(148 147)
(149 148)
(150 149)
(151 150)
(152 151)
(153 152)
(154 153)
(155 154)
(156 155)
(157 156)
(158 157)
(159 158)
(160 159)
(161 160)
(162 161)
(163 162)
(164 163)
(165 164)
(166 165)
(167 166)
(168 167)
(169 168)
(170 169)
(171 170)
(172 171)
(173 172)
(174 173)
(175 174)
(176 175)
(177 176)
(178 177)
(179 178)
(145 179)
(77 0)
(1 84)
(0 1)
(1 2)
(2 3)
(4 70)
(3 4)
(5 6)
(2 5)
(6 3)
(67 7)
(7 6)
(5 0)
(4 7)
(75 8)
(9 85)
(8 9)
(9 10)
(10 11)
(12 54)
(11 12)
(13 14)
(10 13)
(14 11)
(57 15)
(15 14)
(13 8)
(12 15)
(16 17)
(86 16)
(17 90)
(16 18)
(19 17)
(18 19)
(62 20)
(21 71)
(20 21)
(19 22)
(22 20)
(18 23)
(23 22)
(21 23)
(83 24)
(25 89)
(24 25)
(60 26)
(26 27)
(27 65)
(25 28)
(28 29)
(29 26)
(30 31)
(28 30)
(31 29)
(27 31)
(30 24)
(91 32)
(33 81)
(32 33)
(34 35)
(36 34)
(37 36)
(35 37)
(64 38)
(38 35)
(34 32)
(56 39)
(39 38)
(33 36)
(37 39)
(78 40)
(41 74)
(40 41)
(52 42)
(42 43)
(43 58)
(41 44)
(44 45)
(45 42)
(46 47)
(44 46)
(47 45)
(43 47)
(46 40)
(48 49)
(50 51)
(51 52)
(53 54)
(55 56)
(54 57)
(52 58)
(59 60)
(61 62)
(58 63)
(60 65)
(65 66)
(57 48)
(67 68)
(69 70)
(56 64)
(62 71)
(71 72)
(64 73)
(70 67)
(74 50)
(49 75)
(76 77)
(79 78)
(81 80)
(180 181)
(181 182)
(78 74)
(183 184)
(185 183)
(82 83)
(77 84)
(87 86)
(84 88)
(184 186)
(186 187)
(187 188)
(188 180)
(182 189)
(83 89)
(92 91)
(85 93)
(189 190)
(190 191)
(191 192)
(89 94)
(90 95)
(193 194)
(194 195)
(195 196)
(192 197)
(197 198)
(91 81)
(198 199)
(199 193)
(200 201)
(86 90)
(202 200)
(201 203)
(203 204)
(204 205)
(205 206)
(206 207)
(207 208)
(75 85)
(208 209)
(209 185)
(196 210)
(210 211)
(211 212)
(212 213)
(213 214)
(214 215)
(215 202)
(63 79)
(80 55)
(73 92)
(94 59)
(66 82)
(95 61)
(68 76)
(93 53)
(72 87)
(88 69)
)

// * * * * * * * * * * * * * * * * * * * * * * * * * * * * * * * * * * * * * //


// ************************************************************************* //
