/*--------------------------------*- C++ -*----------------------------------*\
  =========                 |
  \\      /  F ield         | OpenFOAM: The Open Source CFD Toolbox
   \\    /   O peration     | Website:  https://openfoam.org
    \\  /    A nd           | Version:  9
     \\/     M anipulation  |
\*---------------------------------------------------------------------------*/
FoamFile
{
    format      ascii;
    class       extendedFeatureEdgeMesh;
    location    "constant/extendedFeatureEdgeMesh";
    object      inlet.extendedFeatureEdgeMesh;
}
// * * * * * * * * * * * * * * * * * * * * * * * * * * * * * * * * * * * * * //

// points

120
(
(742.16962 5.6199732 656.77332)
(734.72601 5.6199732 655.59442)
(727.20001 5.6199732 655.20001)
(719.67389 5.6199732 655.59442)
(763.20001 5.6199732 664.84613)
(756.48499 5.6199732 661.42468)
(749.44922 5.6199732 658.72388)
(780.70642 5.6199732 679.02258)
(775.37738 5.6199732 673.69348)
(769.52051 5.6199732 668.95068)
(792.97522 5.6199732 697.91492)
(789.55377 5.6199732 691.20001)
(785.44922 5.6199732 684.87939)
(798.80548 5.6199732 719.67389)
(797.62659 5.6199732 712.23029)
(795.67603 5.6199732 704.95068)
(797.62659 5.6199732 742.16962)
(798.80548 5.6199732 734.72601)
(799.20001 5.6199732 727.20001)
(789.55377 5.6199732 763.20001)
(792.97522 5.6199732 756.48499)
(795.67603 5.6199732 749.44922)
(775.37738 5.6199732 780.70642)
(780.70642 5.6199732 775.37738)
(785.44922 5.6199732 769.52051)
(756.48499 5.6199732 792.97522)
(763.20001 5.6199732 789.55377)
(769.52051 5.6199732 785.44922)
(734.72601 5.6199732 798.80548)
(742.16962 5.6199732 797.62659)
(749.44922 5.6199732 795.67603)
(712.23029 5.6199732 797.62659)
(719.67389 5.6199732 798.80548)
(727.20001 5.6199732 799.20001)
(691.20001 5.6199732 789.55377)
(697.91492 5.6199732 792.97522)
(704.95068 5.6199732 795.67603)
(673.69348 5.6199732 775.37738)
(679.02258 5.6199732 780.70642)
(684.87939 5.6199732 785.44922)
(661.42468 5.6199732 756.48499)
(664.84613 5.6199732 763.20001)
(668.95068 5.6199732 769.52051)
(655.59442 5.6199732 734.72601)
(656.77332 5.6199732 742.16962)
(658.72388 5.6199732 749.44922)
(656.77332 5.6199732 712.23029)
(655.59442 5.6199732 719.67389)
(655.20001 5.6199732 727.20001)
(664.84613 5.6199732 691.20001)
(661.42468 5.6199732 697.91492)
(658.72388 5.6199732 704.95068)
(679.02258 5.6199732 673.69348)
(673.69348 5.6199732 679.02258)
(668.95068 5.6199732 684.87939)
(697.91492 5.6199732 661.42468)
(691.20001 5.6199732 664.84613)
(684.87939 5.6199732 668.95068)
(712.23029 5.6199732 656.77332)
(704.95068 5.6199732 658.72388)
(734.72601 3.6199989 798.80548)
(742.16962 3.6199989 797.62659)
(749.44922 3.6199989 795.67603)
(756.48499 3.6199989 792.97522)
(763.20001 3.6199989 789.55377)
(769.52051 3.6199989 785.44922)
(775.37738 3.6199989 780.70642)
(780.70642 3.6199989 775.37738)
(785.44922 3.6199989 769.52051)
(789.55377 3.6199989 763.20001)
(792.97522 3.6199989 756.48499)
(795.67603 3.6199989 749.44922)
(797.62659 3.6199989 742.16962)
(798.80548 3.6199989 734.72601)
(799.20001 3.6199989 727.20001)
(798.80548 3.6199989 719.67389)
(797.62659 3.6199989 712.23029)
(795.67603 3.6199989 704.95068)
(792.97522 3.6199989 697.91492)
(789.55377 3.6199989 691.20001)
(785.44922 3.6199989 684.87939)
(780.70642 3.6199989 679.02258)
(775.37738 3.6199989 673.69348)
(769.52051 3.6199989 668.95068)
(763.20001 3.6199989 664.84613)
(756.48499 3.6199989 661.42468)
(749.44922 3.6199989 658.72388)
(742.16962 3.6199989 656.77332)
(734.72601 3.6199989 655.59442)
(727.20001 3.6199989 655.20001)
(719.67389 3.6199989 655.59442)
(712.23029 3.6199989 656.77332)
(704.95068 3.6199989 658.72388)
(697.91492 3.6199989 661.42468)
(691.20001 3.6199989 664.84613)
(684.87939 3.6199989 668.95068)
(679.02258 3.6199989 673.69348)
(673.69348 3.6199989 679.02258)
(668.95068 3.6199989 684.87939)
(664.84613 3.6199989 691.20001)
(661.42468 3.6199989 697.91492)
(658.72388 3.6199989 704.95068)
(656.77332 3.6199989 712.23029)
(655.59442 3.6199989 719.67389)
(655.20001 3.6199989 727.20001)
(655.59442 3.6199989 734.72601)
(656.77332 3.6199989 742.16962)
(658.72388 3.6199989 749.44922)
(661.42468 3.6199989 756.48499)
(664.84613 3.6199989 763.20001)
(668.95068 3.6199989 769.52051)
(673.69348 3.6199989 775.37738)
(679.02258 3.6199989 780.70642)
(684.87939 3.6199989 785.44922)
(691.20001 3.6199989 789.55377)
(697.91492 3.6199989 792.97522)
(704.95068 3.6199989 795.67603)
(712.23029 3.6199989 797.62659)
(719.67389 3.6199989 798.80548)
(727.20001 3.6199989 799.20001)
)

// edges

120
(
(0 1)
(1 2)
(2 3)
(4 5)
(5 6)
(6 0)
(7 8)
(8 9)
(9 4)
(10 11)
(11 12)
(12 7)
(13 14)
(14 15)
(15 10)
(16 17)
(17 18)
(18 13)
(19 20)
(20 21)
(21 16)
(22 23)
(23 24)
(24 19)
(25 26)
(26 27)
(27 22)
(28 29)
(29 30)
(30 25)
(31 32)
(32 33)
(33 28)
(34 35)
(35 36)
(36 31)
(37 38)
(38 39)
(39 34)
(40 41)
(41 42)
(42 37)
(43 44)
(44 45)
(45 40)
(46 47)
(47 48)
(48 43)
(49 50)
(50 51)
(51 46)
(52 53)
(53 54)
(54 49)
(55 56)
(56 57)
(57 52)
(3 58)
(58 59)
(59 55)
(60 61)
(61 62)
(62 63)
(63 64)
(64 65)
(65 66)
(66 67)
(67 68)
(68 69)
(69 70)
(70 71)
(71 72)
(72 73)
(73 74)
(74 75)
(75 76)
(76 77)
(77 78)
(78 79)
(79 80)
(80 81)
(81 82)
(82 83)
(83 84)
(84 85)
(85 86)
(86 87)
(87 88)
(88 89)
(89 90)
(90 91)
(91 92)
(92 93)
(93 94)
(94 95)
(95 96)
(96 97)
(97 98)
(98 99)
(99 100)
(100 101)
(101 102)
(102 103)
(103 104)
(104 105)
(105 106)
(106 107)
(107 108)
(108 109)
(109 110)
(110 111)
(111 112)
(112 113)
(113 114)
(114 115)
(115 116)
(116 117)
(117 118)
(118 119)
(119 60)
)

// concaveStart mixedStart nonFeatureStart
0 0 0
// internalStart flatStart openStart multipleStart
120 120 120 120
// normals

240
(
(0 1 0)
(0.1564271 0 -0.98768951)
(0 1 0)
(0.052334392 0 -0.99862962)
(0 1 0)
(-0.052333546 0 -0.99862966)
(0 1 0)
(0.45398741 0 -0.8910081)
(0 1 0)
(0.35837118 0 -0.93357919)
(0 1 0)
(0.2588188 0 -0.96592589)
(0 1 0)
(0.70711083 0 -0.70710273)
(0 1 0)
(0.62932007 0 -0.77714622)
(0 1 0)
(0.54463674 0 -0.83867206)
(0 1 0)
(0.89100476 0 -0.45399396)
(0 1 0)
(0.83867686 0 -0.54462934)
(0 1 0)
(0.77714302 0 -0.62932403)
(0 1 0)
(0.98768951 0 -0.1564271)
(0 1 0)
(0.96592589 0 -0.2588188)
(0 1 0)
(0.93357919 0 -0.35837118)
(0 1 0)
(0.98768951 0 0.1564271)
(0 1 0)
(0.99862877 0 0.052350546)
(-0 1 0)
(0.99862881 0 -0.052349699)
(0 1 0)
(0.8910081 0 0.45398741)
(0 1 0)
(0.93357919 0 0.35837118)
(0 1 0)
(0.96592589 0 0.2588188)
(0 1 0)
(0.70710678 0 0.70710678)
(0 1 0)
(0.77714622 0 0.62932007)
(0 1 0)
(0.83867206 0 0.54463674)
(0 1 0)
(0.45398741 0 0.8910081)
(0 1 0)
(0.54463674 0 0.83867206)
(0 1 0)
(0.62932007 0 0.77714622)
(0 1 0)
(0.1564271 0 0.98768951)
(0 1 0)
(0.2588188 0 0.96592589)
(0 1 0)
(0.35837118 0 0.93357919)
(-0 1 0)
(-0.1564271 0 0.98768951)
(0 1 -0)
(-0.052349699 0 0.99862881)
(0 1 0)
(0.052350546 0 0.99862877)
(-0 1 0)
(-0.45399396 0 0.89100476)
(0 1 0)
(-0.35837118 0 0.93357919)
(0 1 0)
(-0.2588188 0 0.96592589)
(-0 1 0)
(-0.70710273 0 0.70711083)
(0 1 0)
(-0.62932403 0 0.77714302)
(0 1 0)
(-0.54462934 0 0.83867686)
(-0 1 0)
(-0.8910081 0 0.45398741)
(0 1 0)
(-0.83867206 0 0.54463674)
(0 1 0)
(-0.77714622 0 0.62932007)
(-0 1 0)
(-0.98768951 0 0.1564271)
(0 1 0)
(-0.96592589 0 0.2588188)
(0 1 0)
(-0.93357919 0 0.35837118)
(0 1 -0)
(-0.98768951 0 -0.1564271)
(0 1 0)
(-0.99862966 0 -0.052333546)
(0 1 0)
(-0.99862962 0 0.052334392)
(0 1 -0)
(-0.89100476 0 -0.45399396)
(0 1 0)
(-0.93357919 0 -0.35837118)
(0 1 0)
(-0.96592589 0 -0.2588188)
(0 1 -0)
(-0.70710678 0 -0.70710678)
(0 1 0)
(-0.77714302 0 -0.62932403)
(0 1 0)
(-0.83867686 0 -0.54462934)
(0 1 -0)
(-0.45399396 0 -0.89100476)
(0 1 0)
(-0.54462934 0 -0.83867686)
(0 1 0)
(-0.62932403 0 -0.77714302)
(0 1 -0)
(-0.1564271 0 -0.98768951)
(0 1 0)
(-0.2588188 0 -0.96592589)
(0 1 0)
(-0.35837118 0 -0.93357919)
(0.1564271 0 0.98768951)
(-0 -1 0)
(0.2588188 0 0.96592589)
(0 -1 0)
(0.35837118 0 0.93357919)
(0 -1 0)
(0.45398741 0 0.8910081)
(-0 -1 0)
(0.54463674 0 0.83867206)
(0 -1 0)
(0.62932007 0 0.77714622)
(0 -1 0)
(0.70710678 0 0.70710678)
(-0 -1 0)
(0.77714622 0 0.62932007)
(0 -1 0)
(0.83867206 0 0.54463674)
(0 -1 0)
(0.8910081 0 0.45398741)
(-0 -1 0)
(0.93357919 0 0.35837118)
(0 -1 0)
(0.96592589 0 0.2588188)
(0 -1 0)
(0.98768951 0 0.1564271)
(-0 -1 0)
(0.99862877 0 0.052350546)
(0 -1 0)
(0.99862881 0 -0.052349699)
(0 -1 0)
(0.98768951 0 -0.1564271)
(0 -1 0)
(0.96592589 0 -0.2588188)
(0 -1 0)
(0.93357919 0 -0.35837118)
(0 -1 0)
(0.89100476 0 -0.45399396)
(0 -1 0)
(0.83867686 0 -0.54462934)
(0 -1 0)
(0.77714302 0 -0.62932403)
(0 -1 0)
(0.70711083 0 -0.70710273)
(0 -1 0)
(0.62932007 0 -0.77714622)
(0 -1 0)
(0.54463674 0 -0.83867206)
(0 -1 0)
(0.45398741 0 -0.8910081)
(0 -1 0)
(0.35837118 0 -0.93357919)
(0 -1 0)
(0.2588188 0 -0.96592589)
(0 -1 0)
(0.1564271 0 -0.98768951)
(0 -1 0)
(0.052334392 0 -0.99862962)
(0 -1 0)
(-0.052333546 -0 -0.99862966)
(0 -1 -0)
(-0.1564271 -0 -0.98768951)
(0 -1 0)
(-0.2588188 -0 -0.96592589)
(0 -1 0)
(-0.35837118 -0 -0.93357919)
(0 -1 0)
(-0.45399396 -0 -0.89100476)
(0 -1 0)
(-0.54462934 -0 -0.83867686)
(0 -1 0)
(-0.62932403 -0 -0.77714302)
(0 -1 0)
(-0.70710678 -0 -0.70710678)
(0 -1 0)
(-0.77714302 -0 -0.62932403)
(0 -1 0)
(-0.83867686 -0 -0.54462934)
(0 -1 0)
(-0.89100476 -0 -0.45399396)
(0 -1 0)
(-0.93357919 -0 -0.35837118)
(0 -1 0)
(-0.96592589 -0 -0.2588188)
(0 -1 0)
(-0.98768951 -0 -0.1564271)
(0 -1 0)
(-0.99862966 -0 -0.052333546)
(-0 -1 0)
(-0.99862962 0 0.052334392)
(0 -1 0)
(-0.98768951 0 0.1564271)
(0 -1 -0)
(-0.96592589 0 0.2588188)
(0 -1 0)
(-0.93357919 0 0.35837118)
(0 -1 0)
(-0.8910081 0 0.45398741)
(0 -1 -0)
(-0.83867206 0 0.54463674)
(0 -1 0)
(-0.77714622 0 0.62932007)
(0 -1 0)
(-0.70710273 0 0.70711083)
(0 -1 -0)
(-0.62932403 0 0.77714302)
(0 -1 0)
(-0.54462934 0 0.83867686)
(0 -1 0)
(-0.45399396 0 0.89100476)
(0 -1 -0)
(-0.35837118 0 0.93357919)
(0 -1 0)
(-0.2588188 0 0.96592589)
(0 -1 0)
(-0.1564271 0 0.98768951)
(0 -1 -0)
(-0.052349699 0 0.99862881)
(0 -1 0)
(0.052350546 0 0.99862877)
(0 -1 0)
)

// normal volume types

240
(
0
0
0
0
0
0
0
0
0
0
0
0
0
0
0
0
0
0
0
0
0
0
0
0
0
0
0
0
0
0
0
0
0
0
0
0
0
0
0
0
0
0
0
0
0
0
0
0
0
0
0
0
0
0
0
0
0
0
0
0
0
0
0
0
0
0
0
0
0
0
0
0
0
0
0
0
0
0
0
0
0
0
0
0
0
0
0
0
0
0
0
0
0
0
0
0
0
0
0
0
0
0
0
0
0
0
0
0
0
0
0
0
0
0
0
0
0
0
0
0
0
0
0
0
0
0
0
0
0
0
0
0
0
0
0
0
0
0
0
0
0
0
0
0
0
0
0
0
0
0
0
0
0
0
0
0
0
0
0
0
0
0
0
0
0
0
0
0
0
0
0
0
0
0
0
0
0
0
0
0
0
0
0
0
0
0
0
0
0
0
0
0
0
0
0
0
0
0
0
0
0
0
0
0
0
0
0
0
0
0
0
0
0
0
0
0
0
0
0
0
0
0
0
0
0
0
0
0
0
0
0
0
0
0
0
0
0
0
0
0
)

// normalDirections

120
(
2(1 -1)
2(1 -1)
2(1 -1)
2(1 -1)
2(1 -1)
2(1 -1)
2(1 -1)
2(1 -1)
2(1 -1)
2(1 -1)
2(1 -1)
2(1 -1)
2(1 -1)
2(1 -1)
2(1 -1)
2(1 -1)
2(1 -1)
2(1 -1)
2(1 -1)
2(1 -1)
2(1 -1)
2(1 -1)
2(1 -1)
2(1 -1)
2(1 -1)
2(1 -1)
2(1 -1)
2(1 -1)
2(1 -1)
2(1 -1)
2(1 -1)
2(1 -1)
2(1 -1)
2(1 -1)
2(1 -1)
2(1 -1)
2(1 -1)
2(1 -1)
2(1 -1)
2(1 -1)
2(1 -1)
2(1 -1)
2(1 -1)
2(1 -1)
2(1 -1)
2(1 -1)
2(1 -1)
2(1 -1)
2(1 -1)
2(1 -1)
2(1 -1)
2(1 -1)
2(1 -1)
2(1 -1)
2(1 -1)
2(1 -1)
2(1 -1)
2(1 -1)
2(1 -1)
2(1 -1)
2(1 -1)
2(1 -1)
2(1 -1)
2(1 -1)
2(1 -1)
2(1 -1)
2(1 -1)
2(1 -1)
2(1 -1)
2(1 -1)
2(1 -1)
2(1 -1)
2(1 -1)
2(1 -1)
2(1 -1)
2(1 -1)
2(1 -1)
2(1 -1)
2(1 -1)
2(1 -1)
2(1 -1)
2(1 -1)
2(1 -1)
2(1 -1)
2(1 -1)
2(1 -1)
2(1 -1)
2(1 -1)
2(1 -1)
2(1 -1)
2(1 -1)
2(1 -1)
2(1 -1)
2(1 -1)
2(1 -1)
2(1 -1)
2(1 -1)
2(1 -1)
2(1 -1)
2(1 -1)
2(1 -1)
2(1 -1)
2(1 -1)
2(1 -1)
2(1 -1)
2(1 -1)
2(1 -1)
2(1 -1)
2(1 -1)
2(1 -1)
2(1 -1)
2(1 -1)
2(1 -1)
2(1 -1)
2(1 -1)
2(1 -1)
2(1 -1)
2(1 -1)
2(1 -1)
2(1 -1)
)

// edgeNormals

120
(
2(0 1)
2(2 3)
2(4 5)
2(6 7)
2(8 9)
2(10 11)
2(12 13)
2(14 15)
2(16 17)
2(18 19)
2(20 21)
2(22 23)
2(24 25)
2(26 27)
2(28 29)
2(30 31)
2(32 33)
2(34 35)
2(36 37)
2(38 39)
2(40 41)
2(42 43)
2(44 45)
2(46 47)
2(48 49)
2(50 51)
2(52 53)
2(54 55)
2(56 57)
2(58 59)
2(60 61)
2(62 63)
2(64 65)
2(66 67)
2(68 69)
2(70 71)
2(72 73)
2(74 75)
2(76 77)
2(78 79)
2(80 81)
2(82 83)
2(84 85)
2(86 87)
2(88 89)
2(90 91)
2(92 93)
2(94 95)
2(96 97)
2(98 99)
2(100 101)
2(102 103)
2(104 105)
2(106 107)
2(108 109)
2(110 111)
2(112 113)
2(114 115)
2(116 117)
2(118 119)
2(120 121)
2(122 123)
2(124 125)
2(126 127)
2(128 129)
2(130 131)
2(132 133)
2(134 135)
2(136 137)
2(138 139)
2(140 141)
2(142 143)
2(144 145)
2(146 147)
2(148 149)
2(150 151)
2(152 153)
2(154 155)
2(156 157)
2(158 159)
2(160 161)
2(162 163)
2(164 165)
2(166 167)
2(168 169)
2(170 171)
2(172 173)
2(174 175)
2(176 177)
2(178 179)
2(180 181)
2(182 183)
2(184 185)
2(186 187)
2(188 189)
2(190 191)
2(192 193)
2(194 195)
2(196 197)
2(198 199)
2(200 201)
2(202 203)
2(204 205)
2(206 207)
2(208 209)
2(210 211)
2(212 213)
2(214 215)
2(216 217)
2(218 219)
2(220 221)
2(222 223)
2(224 225)
2(226 227)
2(228 229)
2(230 231)
2(232 233)
2(234 235)
2(236 237)
2(238 239)
)

// featurePointNormals
0()
// featurePointEdges
0()
// regionEdges
0()


// ************************************************************************* //
