/*--------------------------------*- C++ -*----------------------------------*\
  =========                 |
  \\      /  F ield         | OpenFOAM: The Open Source CFD Toolbox
   \\    /   O peration     | Website:  https://openfoam.org
    \\  /    A nd           | Version:  9
     \\/     M anipulation  |
\*---------------------------------------------------------------------------*/
FoamFile
{
    format      ascii;
    class       extendedFeatureEdgeMesh;
    location    "constant/extendedFeatureEdgeMesh";
    object      outlet.extendedFeatureEdgeMesh;
}
// * * * * * * * * * * * * * * * * * * * * * * * * * * * * * * * * * * * * * //

// points

120
(
(797.62659 1800.65 1809.2)
(798.80548 1808.094 1809.2)
(799.20001 1815.62 1809.2)
(798.80548 1823.146 1809.2)
(789.55377 1779.62 1809.2)
(792.97522 1786.335 1809.2)
(795.67603 1793.371 1809.2)
(775.37738 1762.114 1809.2)
(780.70642 1767.443 1809.2)
(785.44922 1773.299 1809.2)
(756.48499 1749.845 1809.2)
(763.20001 1753.266 1809.2)
(769.52051 1757.371 1809.2)
(734.72601 1744.014 1809.2)
(742.16962 1745.193 1809.2)
(749.44922 1747.144 1809.2)
(712.23029 1745.193 1809.2)
(719.67389 1744.014 1809.2)
(727.20001 1743.62 1809.2)
(691.20001 1753.266 1809.2)
(697.91492 1749.845 1809.2)
(704.95068 1747.144 1809.2)
(673.69348 1767.443 1809.2)
(679.02258 1762.114 1809.2)
(684.87939 1757.371 1809.2)
(661.42468 1786.335 1809.2)
(664.84613 1779.62 1809.2)
(668.95068 1773.299 1809.2)
(655.59442 1808.094 1809.2)
(656.77332 1800.65 1809.2)
(658.72388 1793.371 1809.2)
(656.77332 1830.59 1809.2)
(655.59442 1823.146 1809.2)
(655.20001 1815.62 1809.2)
(664.84613 1851.62 1809.2)
(661.42468 1844.905 1809.2)
(658.72388 1837.869 1809.2)
(679.02258 1869.126 1809.2)
(673.69348 1863.797 1809.2)
(668.95068 1857.941 1809.2)
(697.91492 1881.395 1809.2)
(691.20001 1877.974 1809.2)
(684.87939 1873.869 1809.2)
(719.67389 1887.226 1809.2)
(712.23029 1886.047 1809.2)
(704.95068 1884.0959 1809.2)
(742.16962 1886.047 1809.2)
(734.72601 1887.226 1809.2)
(727.20001 1887.62 1809.2)
(763.20001 1877.974 1809.2)
(756.48499 1881.395 1809.2)
(749.44922 1884.0959 1809.2)
(780.70642 1863.797 1809.2)
(775.37738 1869.126 1809.2)
(769.52051 1873.869 1809.2)
(792.97522 1844.905 1809.2)
(789.55377 1851.62 1809.2)
(785.44922 1857.941 1809.2)
(797.62659 1830.59 1809.2)
(795.67603 1837.869 1809.2)
(655.59442 1823.146 1807.2)
(655.20001 1815.62 1807.2)
(656.77332 1830.59 1807.2)
(658.72388 1837.869 1807.2)
(661.42468 1844.905 1807.2)
(664.84613 1851.62 1807.2)
(668.95068 1857.941 1807.2)
(673.69348 1863.797 1807.2)
(679.02258 1869.126 1807.2)
(684.87939 1873.869 1807.2)
(691.20001 1877.974 1807.2)
(697.91492 1881.395 1807.2)
(704.95068 1884.0959 1807.2)
(712.23029 1886.047 1807.2)
(719.67389 1887.226 1807.2)
(727.20001 1887.62 1807.2)
(734.72601 1887.226 1807.2)
(742.16962 1886.047 1807.2)
(749.44922 1884.0959 1807.2)
(756.48499 1881.395 1807.2)
(763.20001 1877.974 1807.2)
(769.52051 1873.869 1807.2)
(775.37738 1869.126 1807.2)
(780.70642 1863.797 1807.2)
(785.44922 1857.941 1807.2)
(789.55377 1851.62 1807.2)
(792.97522 1844.905 1807.2)
(795.67603 1837.869 1807.2)
(797.62659 1830.59 1807.2)
(798.80548 1823.146 1807.2)
(799.20001 1815.62 1807.2)
(798.80548 1808.094 1807.2)
(797.62659 1800.65 1807.2)
(795.67603 1793.371 1807.2)
(792.97522 1786.335 1807.2)
(789.55377 1779.62 1807.2)
(785.44922 1773.299 1807.2)
(780.70642 1767.443 1807.2)
(775.37738 1762.114 1807.2)
(769.52051 1757.371 1807.2)
(763.20001 1753.266 1807.2)
(756.48499 1749.845 1807.2)
(749.44922 1747.144 1807.2)
(742.16962 1745.193 1807.2)
(734.72601 1744.014 1807.2)
(727.20001 1743.62 1807.2)
(719.67389 1744.014 1807.2)
(712.23029 1745.193 1807.2)
(704.95068 1747.144 1807.2)
(697.91492 1749.845 1807.2)
(691.20001 1753.266 1807.2)
(684.87939 1757.371 1807.2)
(679.02258 1762.114 1807.2)
(673.69348 1767.443 1807.2)
(668.95068 1773.299 1807.2)
(664.84613 1779.62 1807.2)
(661.42468 1786.335 1807.2)
(658.72388 1793.371 1807.2)
(656.77332 1800.65 1807.2)
(655.59442 1808.094 1807.2)
)

// edges

120
(
(0 1)
(1 2)
(2 3)
(4 5)
(5 6)
(6 0)
(7 8)
(8 9)
(9 4)
(10 11)
(11 12)
(12 7)
(13 14)
(14 15)
(15 10)
(16 17)
(17 18)
(18 13)
(19 20)
(20 21)
(21 16)
(22 23)
(23 24)
(24 19)
(25 26)
(26 27)
(27 22)
(28 29)
(29 30)
(30 25)
(31 32)
(32 33)
(33 28)
(34 35)
(35 36)
(36 31)
(37 38)
(38 39)
(39 34)
(40 41)
(41 42)
(42 37)
(43 44)
(44 45)
(45 40)
(46 47)
(47 48)
(48 43)
(49 50)
(50 51)
(51 46)
(52 53)
(53 54)
(54 49)
(55 56)
(56 57)
(57 52)
(3 58)
(58 59)
(59 55)
(60 61)
(62 60)
(63 62)
(64 63)
(65 64)
(66 65)
(67 66)
(68 67)
(69 68)
(70 69)
(71 70)
(72 71)
(73 72)
(74 73)
(75 74)
(76 75)
(77 76)
(78 77)
(79 78)
(80 79)
(81 80)
(82 81)
(83 82)
(84 83)
(85 84)
(86 85)
(87 86)
(88 87)
(89 88)
(90 89)
(91 90)
(92 91)
(93 92)
(94 93)
(95 94)
(96 95)
(97 96)
(98 97)
(99 98)
(100 99)
(101 100)
(102 101)
(103 102)
(104 103)
(105 104)
(106 105)
(107 106)
(108 107)
(109 108)
(110 109)
(111 110)
(112 111)
(113 112)
(114 113)
(115 114)
(116 115)
(117 116)
(118 117)
(119 118)
(61 119)
)

// concaveStart mixedStart nonFeatureStart
0 0 0
// internalStart flatStart openStart multipleStart
120 120 120 120
// normals

240
(
(0 -0 1)
(0.9876907 -0.15641959 0)
(-0 0 1)
(0.99862877 -0.052350546 0)
(0 0 1)
(0.99862877 0.052350546 -0)
(0 -0 1)
(0.89100643 -0.45399069 0)
(0 0 1)
(0.93358335 -0.35836034 0)
(0 0 1)
(0.96592101 -0.25883702 0)
(0 -0 1)
(0.70710273 -0.70711083 0)
(0 0 1)
(0.7770981 -0.62937948 0)
(0 0 1)
(0.83869368 -0.54460345 0)
(0 -0 1)
(0.4539424 -0.89103103 0)
(0 0 1)
(0.54467661 -0.83864616 0)
(0 0 1)
(0.62933963 -0.77713038 0)
(0 -0 1)
(0.156435 -0.98768826 0)
(0 0 1)
(0.25887925 -0.96590969 0)
(0 0 1)
(0.35838529 -0.93357377 0)
(-0 0 1)
(-0.156435 -0.98768826 0)
(0 0 1)
(-0.052285087 -0.9986322 0)
(0 0 1)
(0.052285933 -0.99863216 0)
(-0 0 1)
(-0.45394895 -0.89102769 0)
(0 0 1)
(-0.35838529 -0.93357377 0)
(0 0 1)
(-0.25887925 -0.96590969 0)
(-0 0 1)
(-0.70709868 -0.70711488 0)
(0 0 1)
(-0.62934359 -0.77712717 0)
(0 0 1)
(-0.54466921 -0.83865097 0)
(-0 0 1)
(-0.89100643 -0.45399069 0)
(0 0 1)
(-0.83869368 -0.54460345 0)
(0 0 1)
(-0.7770981 -0.62937948 0)
(-0 0 1)
(-0.9876907 -0.15641959 0)
(0 0 1)
(-0.96592101 -0.25883702 0)
(0 0 1)
(-0.93358335 -0.35836034 0)
(0 0 1)
(-0.9876907 0.15641959 0)
(0 0 1)
(-0.99862962 0.052334392 0)
(0 0 1)
(-0.99862962 -0.052334392 0)
(0 0 1)
(-0.89100643 0.45399069 0)
(0 0 1)
(-0.93358335 0.35836034 0)
(0 0 1)
(-0.96592101 0.25883702 0)
(0 0 1)
(-0.70709868 0.70711488 0)
(0 0 1)
(-0.7770981 0.62937948 0)
(0 0 1)
(-0.83869368 0.54460345 0)
(0 0 1)
(-0.45394895 0.89102769 0)
(0 0 1)
(-0.54466921 0.83865097 0)
(0 0 1)
(-0.62934359 0.77712717 0)
(0 0 1)
(-0.156435 0.98768826 0)
(0 0 1)
(-0.25887925 0.96590969 0)
(0 0 1)
(-0.35838529 0.93357377 0)
(0 0 1)
(0.156435 0.98768826 -0)
(0 0 1)
(0.052285933 0.99863216 -0)
(0 -0 1)
(-0.052285087 0.9986322 0)
(0 0 1)
(0.4539424 0.89103103 -0)
(0 0 1)
(0.35838529 0.93357377 -0)
(0 0 1)
(0.25887925 0.96590969 -0)
(0 0 1)
(0.70710273 0.70711083 -0)
(0 0 1)
(0.62933963 0.77713038 -0)
(0 0 1)
(0.54467661 0.83864616 -0)
(0 0 1)
(0.89100643 0.45399069 -0)
(0 0 1)
(0.83869368 0.54460345 -0)
(0 0 1)
(0.7770981 0.62937948 -0)
(0 0 1)
(0.9876907 0.15641959 -0)
(0 0 1)
(0.96592101 0.25883702 -0)
(0 0 1)
(0.93358335 0.35836034 -0)
(-0.99862962 0.052334392 0)
(0 0 -1)
(-0.9876907 0.15641959 0)
(0 0 -1)
(-0.96592101 0.25883702 0)
(0 0 -1)
(-0.93358335 0.35836034 0)
(0 0 -1)
(-0.89100643 0.45399069 0)
(0 0 -1)
(-0.83869368 0.54460345 0)
(0 0 -1)
(-0.7770981 0.62937948 0)
(0 0 -1)
(-0.70709868 0.70711488 0)
(0 0 -1)
(-0.62934359 0.77712717 0)
(0 0 -1)
(-0.54466921 0.83865097 0)
(0 0 -1)
(-0.45394895 0.89102769 0)
(0 0 -1)
(-0.35838529 0.93357377 0)
(0 0 -1)
(-0.25887925 0.96590969 0)
(0 0 -1)
(-0.156435 0.98768826 0)
(0 0 -1)
(-0.052285087 0.9986322 0)
(0 0 -1)
(0.052285933 0.99863216 0)
(0 0 -1)
(0.156435 0.98768826 0)
(0 -0 -1)
(0.25887925 0.96590969 0)
(0 0 -1)
(0.35838529 0.93357377 0)
(0 0 -1)
(0.4539424 0.89103103 0)
(0 -0 -1)
(0.54467661 0.83864616 0)
(0 0 -1)
(0.62933963 0.77713038 0)
(0 0 -1)
(0.70710273 0.70711083 0)
(0 -0 -1)
(0.7770981 0.62937948 0)
(0 0 -1)
(0.83869368 0.54460345 0)
(0 0 -1)
(0.89100643 0.45399069 0)
(0 -0 -1)
(0.93358335 0.35836034 0)
(0 0 -1)
(0.96592101 0.25883702 0)
(0 0 -1)
(0.9876907 0.15641959 0)
(0 -0 -1)
(0.99862877 0.052350546 0)
(0 0 -1)
(0.99862877 -0.052350546 0)
(0 0 -1)
(0.9876907 -0.15641959 0)
(-0 0 -1)
(0.96592101 -0.25883702 0)
(0 0 -1)
(0.93358335 -0.35836034 0)
(0 0 -1)
(0.89100643 -0.45399069 0)
(-0 0 -1)
(0.83869368 -0.54460345 0)
(0 0 -1)
(0.7770981 -0.62937948 0)
(0 0 -1)
(0.70710273 -0.70711083 0)
(-0 0 -1)
(0.62933963 -0.77713038 0)
(0 0 -1)
(0.54467661 -0.83864616 0)
(0 0 -1)
(0.4539424 -0.89103103 0)
(-0 0 -1)
(0.35838529 -0.93357377 0)
(0 0 -1)
(0.25887925 -0.96590969 0)
(0 0 -1)
(0.156435 -0.98768826 0)
(-0 0 -1)
(0.052285933 -0.99863216 0)
(0 0 -1)
(-0.052285087 -0.9986322 0)
(0 -0 -1)
(-0.156435 -0.98768826 0)
(0 0 -1)
(-0.25887925 -0.96590969 0)
(0 0 -1)
(-0.35838529 -0.93357377 0)
(0 0 -1)
(-0.45394895 -0.89102769 0)
(0 0 -1)
(-0.54466921 -0.83865097 0)
(0 0 -1)
(-0.62934359 -0.77712717 0)
(0 0 -1)
(-0.70709868 -0.70711488 0)
(0 0 -1)
(-0.7770981 -0.62937948 0)
(0 0 -1)
(-0.83869368 -0.54460345 0)
(0 0 -1)
(-0.89100643 -0.45399069 0)
(0 0 -1)
(-0.93358335 -0.35836034 0)
(0 0 -1)
(-0.96592101 -0.25883702 0)
(0 0 -1)
(-0.9876907 -0.15641959 0)
(0 0 -1)
(-0.99862962 -0.052334392 0)
(-0 0 -1)
)

// normal volume types

240
(
0
0
0
0
0
0
0
0
0
0
0
0
0
0
0
0
0
0
0
0
0
0
0
0
0
0
0
0
0
0
0
0
0
0
0
0
0
0
0
0
0
0
0
0
0
0
0
0
0
0
0
0
0
0
0
0
0
0
0
0
0
0
0
0
0
0
0
0
0
0
0
0
0
0
0
0
0
0
0
0
0
0
0
0
0
0
0
0
0
0
0
0
0
0
0
0
0
0
0
0
0
0
0
0
0
0
0
0
0
0
0
0
0
0
0
0
0
0
0
0
0
0
0
0
0
0
0
0
0
0
0
0
0
0
0
0
0
0
0
0
0
0
0
0
0
0
0
0
0
0
0
0
0
0
0
0
0
0
0
0
0
0
0
0
0
0
0
0
0
0
0
0
0
0
0
0
0
0
0
0
0
0
0
0
0
0
0
0
0
0
0
0
0
0
0
0
0
0
0
0
0
0
0
0
0
0
0
0
0
0
0
0
0
0
0
0
0
0
0
0
0
0
0
0
0
0
0
0
0
0
0
0
0
0
0
0
0
0
0
0
)

// normalDirections

120
(
2(1 -1)
2(1 -1)
2(1 -1)
2(1 -1)
2(1 -1)
2(1 -1)
2(1 -1)
2(1 -1)
2(1 -1)
2(1 -1)
2(1 -1)
2(1 -1)
2(1 -1)
2(1 -1)
2(1 -1)
2(1 -1)
2(1 -1)
2(1 -1)
2(1 -1)
2(1 -1)
2(1 -1)
2(1 -1)
2(1 -1)
2(1 -1)
2(1 -1)
2(1 -1)
2(1 -1)
2(1 -1)
2(1 -1)
2(1 -1)
2(1 -1)
2(1 -1)
2(1 -1)
2(1 -1)
2(1 -1)
2(1 -1)
2(1 -1)
2(1 -1)
2(1 -1)
2(1 -1)
2(1 -1)
2(1 -1)
2(1 -1)
2(1 -1)
2(1 -1)
2(1 -1)
2(1 -1)
2(1 -1)
2(1 -1)
2(1 -1)
2(1 -1)
2(1 -1)
2(1 -1)
2(1 -1)
2(1 -1)
2(1 -1)
2(1 -1)
2(1 -1)
2(1 -1)
2(1 -1)
2(1 -1)
2(1 -1)
2(1 -1)
2(1 -1)
2(1 -1)
2(1 -1)
2(1 -1)
2(1 -1)
2(1 -1)
2(1 -1)
2(1 -1)
2(1 -1)
2(1 -1)
2(1 -1)
2(1 -1)
2(1 -1)
2(1 -1)
2(1 -1)
2(1 -1)
2(1 -1)
2(1 -1)
2(1 -1)
2(1 -1)
2(1 -1)
2(1 -1)
2(1 -1)
2(1 -1)
2(1 -1)
2(1 -1)
2(1 -1)
2(1 -1)
2(1 -1)
2(1 -1)
2(1 -1)
2(1 -1)
2(1 -1)
2(1 -1)
2(1 -1)
2(1 -1)
2(1 -1)
2(1 -1)
2(1 -1)
2(1 -1)
2(1 -1)
2(1 -1)
2(1 -1)
2(1 -1)
2(1 -1)
2(1 -1)
2(1 -1)
2(1 -1)
2(1 -1)
2(1 -1)
2(1 -1)
2(1 -1)
2(1 -1)
2(1 -1)
2(1 -1)
2(1 -1)
2(1 -1)
)

// edgeNormals

120
(
2(0 1)
2(2 3)
2(4 5)
2(6 7)
2(8 9)
2(10 11)
2(12 13)
2(14 15)
2(16 17)
2(18 19)
2(20 21)
2(22 23)
2(24 25)
2(26 27)
2(28 29)
2(30 31)
2(32 33)
2(34 35)
2(36 37)
2(38 39)
2(40 41)
2(42 43)
2(44 45)
2(46 47)
2(48 49)
2(50 51)
2(52 53)
2(54 55)
2(56 57)
2(58 59)
2(60 61)
2(62 63)
2(64 65)
2(66 67)
2(68 69)
2(70 71)
2(72 73)
2(74 75)
2(76 77)
2(78 79)
2(80 81)
2(82 83)
2(84 85)
2(86 87)
2(88 89)
2(90 91)
2(92 93)
2(94 95)
2(96 97)
2(98 99)
2(100 101)
2(102 103)
2(104 105)
2(106 107)
2(108 109)
2(110 111)
2(112 113)
2(114 115)
2(116 117)
2(118 119)
2(120 121)
2(122 123)
2(124 125)
2(126 127)
2(128 129)
2(130 131)
2(132 133)
2(134 135)
2(136 137)
2(138 139)
2(140 141)
2(142 143)
2(144 145)
2(146 147)
2(148 149)
2(150 151)
2(152 153)
2(154 155)
2(156 157)
2(158 159)
2(160 161)
2(162 163)
2(164 165)
2(166 167)
2(168 169)
2(170 171)
2(172 173)
2(174 175)
2(176 177)
2(178 179)
2(180 181)
2(182 183)
2(184 185)
2(186 187)
2(188 189)
2(190 191)
2(192 193)
2(194 195)
2(196 197)
2(198 199)
2(200 201)
2(202 203)
2(204 205)
2(206 207)
2(208 209)
2(210 211)
2(212 213)
2(214 215)
2(216 217)
2(218 219)
2(220 221)
2(222 223)
2(224 225)
2(226 227)
2(228 229)
2(230 231)
2(232 233)
2(234 235)
2(236 237)
2(238 239)
)

// featurePointNormals
0()
// featurePointEdges
0()
// regionEdges
0()


// ************************************************************************* //
