/*--------------------------------*- C++ -*----------------------------------*\
  =========                 |
  \\      /  F ield         | OpenFOAM: The Open Source CFD Toolbox
   \\    /   O peration     | Website:  https://openfoam.org
    \\  /    A nd           | Version:  9
     \\/     M anipulation  |
\*---------------------------------------------------------------------------*/
FoamFile
{
    format      ascii;
    class       extendedFeatureEdgeMesh;
    location    "constant/extendedFeatureEdgeMesh";
    object      vessel.extendedFeatureEdgeMesh;
}
// * * * * * * * * * * * * * * * * * * * * * * * * * * * * * * * * * * * * * //

// points

464
(
(762.20001 367.62 787.82178)
(751.14142 367.62 792.97852)
(772.19513 367.62 780.82312)
(780.82312 367.62 772.19513)
(739.35529 367.62 796.13647)
(727.20001 367.62 797.20001)
(703.25861 367.62 792.97852)
(692.20001 367.62 787.82178)
(715.04462 367.62 796.13647)
(658.26343 367.62 739.35529)
(657.20001 367.62 727.20001)
(661.42151 367.62 751.14142)
(666.57819 367.62 762.20001)
(661.42151 367.62 703.25861)
(666.57819 367.62 692.20001)
(658.26343 367.62 715.04462)
(673.5769 367.62 682.20477)
(682.20477 367.62 673.5769)
(703.25861 367.62 661.42151)
(715.04462 367.62 658.26343)
(692.20001 367.62 666.57819)
(673.5769 367.62 772.19513)
(682.20477 367.62 780.82312)
(739.35529 367.62 658.26343)
(751.14142 367.62 661.42151)
(727.20001 367.62 657.20001)
(772.19513 367.62 673.5769)
(780.82312 367.62 682.20477)
(762.20001 367.62 666.57819)
(787.82178 367.62 692.20001)
(792.97852 367.62 703.25861)
(797.20001 367.62 727.20001)
(796.13647 367.62 739.35529)
(796.13647 367.62 715.04462)
(787.82178 367.62 762.20001)
(792.97852 367.62 751.14142)
(780.82312 5.6199732 682.20477)
(772.19513 5.6199732 673.5769)
(773.48071 5.6199732 672.0448)
(782.35522 5.6199732 680.91931)
(787.82178 5.6199732 692.20001)
(789.55377 5.6199732 691.20001)
(792.97852 5.6199732 703.25861)
(794.85779 5.6199732 702.57452)
(796.13647 5.6199732 715.04462)
(798.10608 5.6199732 714.69733)
(797.20001 5.6199732 727.20001)
(799.20001 5.6199732 727.20001)
(796.13647 5.6199732 739.35529)
(798.10608 5.6199732 739.70258)
(792.97852 5.6199732 751.14142)
(794.85779 5.6199732 751.82538)
(787.82178 5.6199732 762.20001)
(789.55377 5.6199732 763.20001)
(780.82312 5.6199732 772.19513)
(782.35522 5.6199732 773.48071)
(772.19513 5.6199732 780.82312)
(773.48071 5.6199732 782.35522)
(762.20001 5.6199732 787.82178)
(763.20001 5.6199732 789.55377)
(751.14142 5.6199732 792.97852)
(751.82538 5.6199732 794.85779)
(739.35529 5.6199732 796.13647)
(739.70258 5.6199732 798.10608)
(727.20001 5.6199732 797.20001)
(727.20001 5.6199732 799.20001)
(715.04462 5.6199732 796.13647)
(714.69733 5.6199732 798.10608)
(703.25861 5.6199732 792.97852)
(702.57452 5.6199732 794.85779)
(692.20001 5.6199732 787.82178)
(691.20001 5.6199732 789.55377)
(682.20477 5.6199732 780.82312)
(680.91931 5.6199732 782.35522)
(673.5769 5.6199732 772.19513)
(672.0448 5.6199732 773.48071)
(666.57819 5.6199732 762.20001)
(664.84613 5.6199732 763.20001)
(661.42151 5.6199732 751.14142)
(659.54211 5.6199732 751.82538)
(658.26343 5.6199732 739.35529)
(656.29382 5.6199732 739.70258)
(657.20001 5.6199732 727.20001)
(655.20001 5.6199732 727.20001)
(658.26343 5.6199732 715.04462)
(656.29382 5.6199732 714.69733)
(661.42151 5.6199732 703.25861)
(659.54211 5.6199732 702.57452)
(666.57819 5.6199732 692.20001)
(664.84613 5.6199732 691.20001)
(673.5769 5.6199732 682.20477)
(672.0448 5.6199732 680.91931)
(682.20477 5.6199732 673.5769)
(680.91931 5.6199732 672.0448)
(692.20001 5.6199732 666.57819)
(691.20001 5.6199732 664.84613)
(703.25861 5.6199732 661.42151)
(702.57452 5.6199732 659.54211)
(715.04462 5.6199732 658.26343)
(714.69733 5.6199732 656.29382)
(727.20001 5.6199732 657.20001)
(727.20001 5.6199732 655.20001)
(739.35529 5.6199732 658.26343)
(739.70258 5.6199732 656.29382)
(751.14142 5.6199732 661.42151)
(751.82538 5.6199732 659.54211)
(762.20001 5.6199732 666.57819)
(763.20001 5.6199732 664.84613)
(681.0694 2175.6201 1445.7209)
(589.5658 2175.6201 1433.923)
(681.0694 365.62 1445.7209)
(773.33051 365.62 1445.7209)
(589.5658 365.62 1433.923)
(864.83423 365.62 1433.923)
(727.20001 2175.6201 1447.2)
(773.33051 2175.6201 1445.7209)
(864.83423 2175.6201 1433.923)
(500.32211 2175.6201 1410.52)
(500.32211 365.62 1410.52)
(414.80371 2175.6201 1375.8979)
(414.80371 365.62 1375.8979)
(334.41479 2175.6201 1330.623)
(334.41479 365.62 1330.623)
(260.47549 2175.6201 1275.441)
(260.47549 365.62 1275.441)
(194.1998 2175.6201 1211.257)
(194.1998 365.62 1211.257)
(136.67599 2175.6201 1139.124)
(136.67599 365.62 1139.124)
(88.848473 2175.6201 1060.228)
(88.848473 365.62 1060.228)
(51.502701 2175.6201 975.86279)
(51.502701 365.62 975.86279)
(25.251869 2175.6201 887.4151)
(25.251869 365.62 887.4151)
(10.52701 2175.6201 796.33661)
(10.52701 365.62 796.33661)
(7.5699091 2175.6201 704.1228)
(7.5699091 365.62 704.1228)
(16.42907 2175.6201 612.28809)
(16.42907 365.62 612.28809)
(36.95911 2175.6201 522.34009)
(36.95911 365.62 522.34009)
(68.822861 2175.6201 435.75601)
(68.822861 365.62 435.75601)
(111.4972 2175.6201 353.95731)
(111.4972 365.62 353.95731)
(164.2813 2175.6201 278.28729)
(164.2813 365.62 278.28729)
(226.3085 2175.6201 209.9884)
(226.3085 365.62 209.9884)
(296.56039 2175.6201 150.18221)
(296.56039 365.62 150.18221)
(373.8833 2175.6201 99.850479)
(373.8833 365.62 99.850479)
(457.00769 2175.6201 59.819881)
(457.00769 365.62 59.819881)
(544.56873 2175.6201 30.74765)
(544.56873 365.62 30.74765)
(635.12842 2175.6201 13.11117)
(635.12842 365.62 13.11117)
(727.20001 2175.6201 7.1999431)
(727.20001 365.62 7.1999431)
(819.27148 2175.6201 13.11117)
(819.27148 365.62 13.11117)
(909.8313 2175.6201 30.74765)
(909.8313 365.62 30.74765)
(997.39221 2175.6201 59.819881)
(997.39221 365.62 59.819881)
(1080.517 2175.6201 99.850479)
(1080.517 365.62 99.850479)
(1157.84 2175.6201 150.18221)
(1157.84 365.62 150.18221)
(1228.0909 2175.6201 209.9884)
(1228.0909 365.62 209.9884)
(1290.119 2175.6201 278.28729)
(1290.119 365.62 278.28729)
(1342.903 2175.6201 353.95731)
(1342.903 365.62 353.95731)
(1385.577 2175.6201 435.75601)
(1385.577 365.62 435.75601)
(1417.441 2175.6201 522.34009)
(1417.441 365.62 522.34009)
(1437.9709 2175.6201 612.28809)
(1437.9709 365.62 612.28809)
(1446.83 2175.6201 704.1228)
(1446.83 365.62 704.1228)
(1443.873 2175.6201 796.33661)
(1443.873 365.62 796.33661)
(1429.1479 2175.6201 887.4151)
(1429.1479 365.62 887.4151)
(1402.897 2175.6201 975.86279)
(1402.897 365.62 975.86279)
(1365.551 2175.6201 1060.228)
(1365.551 365.62 1060.228)
(1317.724 2175.6201 1139.124)
(1317.724 365.62 1139.124)
(1260.2 2175.6201 1211.257)
(1260.2 365.62 1211.257)
(1193.924 2175.6201 1275.441)
(1193.924 365.62 1275.441)
(1119.985 2175.6201 1330.623)
(1119.985 365.62 1330.623)
(1039.5959 2175.6201 1375.8979)
(1039.5959 365.62 1375.8979)
(954.07788 2175.6201 1410.52)
(954.07788 365.62 1410.52)
(673.5769 1860.615 1443.1949)
(668.5661 1853.8571 1442.802)
(666.57831 1850.62 1442.636)
(665.31641 1848.337 1442.528)
(661.78351 1840.5341 1442.214)
(661.42151 1839.562 1442.181)
(658.59631 1829.532 1441.915)
(658.26343 1827.775 1441.8831)
(657.60059 1823.099 1441.819)
(657.20001 1815.62 1441.78)
(657.60217 1808.126 1441.819)
(658.26349 1803.465 1441.8831)
(658.80371 1800.722 1441.9351)
(660.7851 1793.505 1442.1219)
(661.42157 1791.678 1442.181)
(663.5022 1786.593 1442.369)
(666.57819 1780.62 1442.636)
(666.95093 1779.9821 1442.668)
(671.10339 1773.749 1443.005)
(673.5769 1770.625 1443.1949)
(772.19519 1869.243 1443.7889)
(765.10107 1874.472 1444.199)
(762.20032 1876.2419 1444.3459)
(756.14691 1879.354 1444.616)
(751.14148 1881.3979 1444.801)
(749.83649 1881.859 1444.843)
(741.13708 1884.219 1445.0649)
(739.35553 1884.557 1445.097)
(729.11298 1885.594 1445.197)
(727.20001 1885.62 1445.2)
(722.2431 1885.444 1445.183)
(715.04462 1884.557 1445.097)
(714.4375 1884.447 1445.087)
(705.67108 1882.2271 1444.877)
(703.25818 1881.3979 1444.801)
(696.17871 1878.371 1444.53)
(692.19958 1876.2419 1444.3459)
(686.08899 1872.276 1444.022)
(682.20477 1869.243 1443.7889)
(681.19757 1868.381 1443.725)
(674.40057 1861.579 1443.256)
(780.823 1770.625 1443.1949)
(786.17871 1777.917 1442.774)
(787.82172 1780.62 1442.636)
(789.50403 1783.7111 1442.4919)
(792.97852 1791.679 1442.181)
(793.0285 1791.816 1442.176)
(796.10272 1803.274 1441.886)
(796.13647 1803.465 1441.8831)
(796.97168 1809.972 1441.802)
(797.20001 1815.62 1441.78)
(797.16992 1817.673 1441.783)
(796.3476 1826.511 1441.863)
(796.13647 1827.776 1441.8831)
(794.0705 1836.316 1442.079)
(792.97827 1839.562 1442.181)
(789.75952 1847.026 1442.469)
(787.82172 1850.62 1442.636)
(786.75641 1852.4041 1442.726)
(783.06812 1857.795 1443.0229)
(780.823 1860.615 1443.1949)
(778.58423 1863.156 1443.359)
(773.20239 1868.381 1443.725)
(675.85559 1768.041 1443.3621)
(681.19757 1762.858 1443.725)
(682.20477 1761.9969 1443.7889)
(689.35437 1756.733 1444.202)
(692.19971 1754.998 1444.3459)
(698.24921 1751.887 1444.616)
(703.25842 1749.842 1444.801)
(704.57928 1749.376 1444.844)
(713.31171 1747.012 1445.066)
(715.04449 1746.683 1445.097)
(725.26672 1745.647 1445.197)
(727.20001 1745.62 1445.2)
(732.19379 1745.798 1445.183)
(739.35541 1746.683 1445.097)
(739.97968 1746.796 1445.0861)
(748.6983 1749.0031 1444.8781)
(751.14172 1749.842 1444.801)
(758.24609 1752.881 1444.528)
(762.20038 1754.998 1444.3459)
(768.26898 1758.934 1444.024)
(772.19513 1761.9969 1443.7889)
(773.20239 1762.858 1443.725)
(780.21863 1769.9139 1443.24)
(657.20001 1815.62 1807.2)
(658.26343 1803.465 1807.2)
(661.42151 1791.679 1807.2)
(666.57819 1780.62 1807.2)
(673.5769 1770.625 1807.2)
(682.20477 1761.9969 1807.2)
(692.20001 1754.998 1807.2)
(703.25861 1749.842 1807.2)
(715.04462 1746.683 1807.2)
(727.20001 1745.62 1807.2)
(739.35529 1746.683 1807.2)
(751.14142 1749.842 1807.2)
(762.20001 1754.998 1807.2)
(772.19513 1761.9969 1807.2)
(780.82312 1770.625 1807.2)
(787.82178 1780.62 1807.2)
(792.97852 1791.679 1807.2)
(796.13647 1803.465 1807.2)
(797.20001 1815.62 1807.2)
(796.13647 1827.775 1807.2)
(792.97852 1839.561 1807.2)
(787.82178 1850.62 1807.2)
(780.82312 1860.615 1807.2)
(772.19513 1869.243 1807.2)
(762.20001 1876.2419 1807.2)
(751.14142 1881.399 1807.2)
(739.35529 1884.557 1807.2)
(727.20001 1885.62 1807.2)
(715.04462 1884.557 1807.2)
(703.25861 1881.399 1807.2)
(692.20001 1876.2419 1807.2)
(682.20477 1869.243 1807.2)
(673.5769 1860.615 1807.2)
(666.57819 1850.62 1807.2)
(661.42151 1839.561 1807.2)
(658.26343 1827.775 1807.2)
(655.20001 1815.62 1807.2)
(656.29382 1828.123 1807.2)
(659.54211 1840.245 1807.2)
(664.84613 1851.62 1807.2)
(672.0448 1861.901 1807.2)
(680.91931 1870.775 1807.2)
(691.20001 1877.974 1807.2)
(702.57452 1883.278 1807.2)
(714.69733 1886.526 1807.2)
(727.20001 1887.62 1807.2)
(739.70258 1886.526 1807.2)
(751.82538 1883.278 1807.2)
(763.20001 1877.974 1807.2)
(773.48071 1870.775 1807.2)
(782.35522 1861.901 1807.2)
(789.55377 1851.62 1807.2)
(794.85779 1840.245 1807.2)
(798.10608 1828.123 1807.2)
(799.20001 1815.62 1807.2)
(798.10608 1803.1169 1807.2)
(794.85779 1790.994 1807.2)
(789.55377 1779.62 1807.2)
(782.35522 1769.339 1807.2)
(773.48071 1760.465 1807.2)
(763.20001 1753.266 1807.2)
(751.82538 1747.962 1807.2)
(739.70258 1744.714 1807.2)
(727.20001 1743.62 1807.2)
(714.69733 1744.714 1807.2)
(702.57452 1747.962 1807.2)
(691.20001 1753.266 1807.2)
(680.91931 1760.465 1807.2)
(672.0448 1769.339 1807.2)
(664.84613 1779.62 1807.2)
(659.54211 1790.994 1807.2)
(656.29382 1803.1169 1807.2)
(1038.729 367.62 1374.0959)
(1118.894 367.62 1328.947)
(1192.6281 367.62 1273.918)
(773.20239 367.62 1443.725)
(864.4519 367.62 1431.959)
(953.44769 367.62 1408.6219)
(415.67139 367.62 1374.0959)
(500.9523 367.62 1408.6219)
(589.94812 367.62 1431.959)
(681.19757 367.62 1443.725)
(12.51775 367.62 796.14447)
(27.20171 367.62 886.96997)
(53.37965 367.62 975.17212)
(70.651711 367.62 436.56549)
(38.876469 367.62 522.90918)
(18.403469 367.62 612.60718)
(9.5688696 367.62 704.18689)
(227.69991 367.62 211.42509)
(165.845 367.62 279.5343)
(113.2075 367.62 354.99411)
(545.07599 367.62 32.68224)
(457.75821 367.62 61.673759)
(374.86481 367.62 101.5931)
(297.75659 367.62 151.785)
(90.621651 367.62 1059.302)
(138.3163 367.62 1137.98)
(195.6804 367.62 1209.912)
(261.772 367.62 1273.918)
(335.50589 367.62 1328.947)
(909.32397 367.62 32.68224)
(819.01581 367.62 15.09476)
(727.20001 367.62 9.1999769)
(635.38422 367.62 15.09476)
(1226.7 367.62 211.42509)
(1156.6429 367.62 151.785)
(1079.535 367.62 101.5931)
(996.64172 367.62 61.673759)
(1383.748 367.62 436.56549)
(1341.192 367.62 354.99411)
(1288.5551 367.62 279.5343)
(1441.882 367.62 796.14447)
(1444.8311 367.62 704.18689)
(1435.996 367.62 612.60718)
(1415.5229 367.62 522.90918)
(1258.72 367.62 1209.912)
(1316.084 367.62 1137.98)
(1363.778 367.62 1059.302)
(1401.02 367.62 975.17212)
(1427.198 367.62 886.96997)
(727.20001 2173.6201 1445.2)
(773.20239 2173.6201 1443.725)
(681.19757 2173.6201 1443.725)
(589.94812 2173.6201 1431.959)
(864.4519 2173.6201 1431.959)
(500.9523 2173.6201 1408.6219)
(415.67139 2173.6201 1374.0959)
(335.50589 2173.6201 1328.947)
(261.772 2173.6201 1273.918)
(195.6804 2173.6201 1209.912)
(138.3163 2173.6201 1137.98)
(90.621651 2173.6201 1059.302)
(53.37965 2173.6201 975.17212)
(27.20171 2173.6201 886.96997)
(12.51775 2173.6201 796.14447)
(9.5688696 2173.6201 704.18689)
(18.403469 2173.6201 612.60718)
(38.876469 2173.6201 522.90918)
(70.651711 2173.6201 436.56549)
(113.2075 2173.6201 354.99411)
(165.845 2173.6201 279.5343)
(227.69991 2173.6201 211.42509)
(297.75659 2173.6201 151.785)
(374.86481 2173.6201 101.5931)
(457.75821 2173.6201 61.673759)
(545.07599 2173.6201 32.68224)
(635.38422 2173.6201 15.09476)
(727.20001 2173.6201 9.1999769)
(819.01581 2173.6201 15.09476)
(909.32397 2173.6201 32.68224)
(996.64172 2173.6201 61.673759)
(1079.535 2173.6201 101.5931)
(1156.6429 2173.6201 151.785)
(1226.7 2173.6201 211.42509)
(1288.5551 2173.6201 279.5343)
(1341.192 2173.6201 354.99411)
(1383.748 2173.6201 436.56549)
(1415.5229 2173.6201 522.90918)
(1435.996 2173.6201 612.60718)
(1444.8311 2173.6201 704.18689)
(1441.882 2173.6201 796.14447)
(1427.198 2173.6201 886.96997)
(1401.02 2173.6201 975.17212)
(1363.778 2173.6201 1059.302)
(1316.084 2173.6201 1137.98)
(1258.72 2173.6201 1209.912)
(1192.6281 2173.6201 1273.918)
(1118.894 2173.6201 1328.947)
(1038.729 2173.6201 1374.0959)
(953.44769 2173.6201 1408.6219)
)

// edges

464
(
(0 1)
(2 0)
(3 2)
(4 5)
(1 4)
(6 7)
(8 6)
(5 8)
(9 10)
(11 9)
(12 11)
(13 14)
(15 13)
(10 15)
(16 17)
(14 16)
(18 19)
(20 18)
(17 20)
(21 12)
(22 21)
(7 22)
(23 24)
(25 23)
(19 25)
(26 27)
(28 26)
(24 28)
(29 30)
(27 29)
(31 32)
(33 31)
(30 33)
(34 3)
(35 34)
(32 35)
(36 37)
(38 39)
(40 36)
(39 41)
(42 40)
(41 43)
(44 42)
(43 45)
(46 44)
(45 47)
(48 46)
(47 49)
(50 48)
(49 51)
(52 50)
(51 53)
(54 52)
(53 55)
(56 54)
(55 57)
(58 56)
(57 59)
(60 58)
(59 61)
(62 60)
(61 63)
(64 62)
(63 65)
(66 64)
(65 67)
(68 66)
(67 69)
(70 68)
(69 71)
(72 70)
(71 73)
(74 72)
(73 75)
(76 74)
(75 77)
(78 76)
(77 79)
(80 78)
(79 81)
(82 80)
(81 83)
(84 82)
(83 85)
(86 84)
(85 87)
(88 86)
(87 89)
(90 88)
(89 91)
(92 90)
(91 93)
(94 92)
(93 95)
(96 94)
(95 97)
(98 96)
(97 99)
(100 98)
(99 101)
(102 100)
(101 103)
(104 102)
(103 105)
(106 104)
(105 107)
(37 106)
(107 38)
(108 109)
(110 111)
(112 110)
(111 113)
(114 108)
(115 114)
(116 115)
(109 117)
(118 112)
(117 119)
(120 118)
(119 121)
(122 120)
(121 123)
(124 122)
(123 125)
(126 124)
(125 127)
(128 126)
(127 129)
(130 128)
(129 131)
(132 130)
(131 133)
(134 132)
(133 135)
(136 134)
(135 137)
(138 136)
(137 139)
(140 138)
(139 141)
(142 140)
(141 143)
(144 142)
(143 145)
(146 144)
(145 147)
(148 146)
(147 149)
(150 148)
(149 151)
(152 150)
(151 153)
(154 152)
(153 155)
(156 154)
(155 157)
(158 156)
(157 159)
(160 158)
(159 161)
(162 160)
(161 163)
(164 162)
(163 165)
(166 164)
(165 167)
(168 166)
(167 169)
(170 168)
(169 171)
(172 170)
(171 173)
(174 172)
(173 175)
(176 174)
(175 177)
(178 176)
(177 179)
(180 178)
(179 181)
(182 180)
(181 183)
(184 182)
(183 185)
(186 184)
(185 187)
(188 186)
(187 189)
(190 188)
(189 191)
(192 190)
(191 193)
(194 192)
(193 195)
(196 194)
(195 197)
(198 196)
(197 199)
(200 198)
(199 201)
(202 200)
(201 203)
(204 202)
(203 205)
(206 204)
(205 116)
(113 206)
(207 208)
(208 209)
(209 210)
(210 211)
(211 212)
(212 213)
(213 214)
(214 215)
(215 216)
(217 218)
(218 219)
(219 220)
(220 221)
(221 222)
(222 223)
(223 224)
(224 225)
(225 226)
(227 228)
(228 229)
(229 230)
(230 231)
(231 232)
(232 233)
(233 234)
(234 235)
(235 236)
(236 237)
(237 238)
(238 239)
(239 240)
(240 241)
(241 242)
(242 243)
(243 244)
(244 245)
(245 246)
(246 247)
(247 207)
(248 249)
(249 250)
(250 251)
(251 252)
(252 253)
(253 254)
(254 255)
(256 257)
(257 258)
(258 259)
(259 260)
(260 261)
(261 262)
(262 263)
(263 264)
(264 265)
(265 266)
(266 267)
(267 268)
(268 269)
(269 227)
(226 270)
(270 271)
(271 272)
(272 273)
(273 274)
(274 275)
(275 276)
(276 277)
(277 278)
(278 279)
(279 280)
(280 281)
(281 282)
(282 283)
(283 284)
(284 285)
(285 286)
(286 287)
(287 288)
(288 289)
(289 290)
(290 291)
(291 292)
(292 248)
(216 217)
(255 256)
(293 294)
(294 295)
(295 296)
(296 297)
(297 298)
(299 300)
(298 299)
(301 302)
(300 301)
(302 303)
(303 304)
(304 305)
(305 306)
(306 307)
(307 308)
(308 309)
(309 310)
(310 311)
(311 312)
(312 313)
(313 314)
(314 315)
(316 317)
(315 316)
(317 318)
(318 319)
(319 320)
(320 321)
(321 322)
(322 323)
(323 324)
(324 325)
(325 326)
(326 327)
(327 328)
(328 293)
(329 330)
(330 331)
(331 332)
(332 333)
(333 334)
(334 335)
(336 337)
(335 336)
(337 338)
(338 339)
(339 340)
(340 341)
(341 342)
(342 343)
(343 344)
(344 345)
(345 346)
(346 347)
(347 348)
(349 350)
(348 349)
(351 352)
(350 351)
(353 354)
(352 353)
(355 356)
(354 355)
(356 357)
(357 358)
(358 359)
(359 360)
(360 361)
(361 362)
(362 363)
(363 364)
(364 329)
(365 366)
(366 367)
(368 369)
(369 370)
(370 365)
(371 372)
(372 373)
(373 374)
(374 368)
(375 376)
(376 377)
(378 379)
(379 380)
(380 381)
(381 375)
(382 383)
(383 384)
(384 378)
(385 386)
(386 387)
(387 388)
(388 382)
(377 389)
(389 390)
(390 391)
(391 392)
(392 393)
(393 371)
(394 395)
(395 396)
(396 397)
(397 385)
(398 399)
(399 400)
(400 401)
(401 394)
(402 403)
(403 404)
(404 398)
(405 406)
(406 407)
(407 408)
(408 402)
(367 409)
(409 410)
(410 411)
(411 412)
(412 413)
(413 405)
(414 415)
(416 414)
(417 416)
(415 418)
(419 417)
(420 419)
(421 420)
(422 421)
(423 422)
(424 423)
(425 424)
(426 425)
(427 426)
(428 427)
(429 428)
(430 429)
(431 430)
(432 431)
(433 432)
(434 433)
(435 434)
(436 435)
(437 436)
(438 437)
(439 438)
(440 439)
(441 440)
(442 441)
(443 442)
(444 443)
(445 444)
(446 445)
(447 446)
(448 447)
(449 448)
(450 449)
(451 450)
(452 451)
(453 452)
(454 453)
(455 454)
(456 455)
(457 456)
(458 457)
(459 458)
(460 459)
(461 460)
(462 461)
(463 462)
(418 463)
)

// concaveStart mixedStart nonFeatureStart
0 0 0
// internalStart flatStart openStart multipleStart
365 464 464 464
// normals

928
(
(-0 1 0)
(-0.42262037 -0 -0.9063068)
(-0 1 0)
(-0.57357648 -0 -0.81915201)
(-0 1 0)
(-0.70710678 -0 -0.70710678)
(-0 1 0)
(-0.087162979 -0 -0.99619406)
(-0 1 0)
(-0.25880943 -0 -0.9659284)
(0 1 -0)
(0.42262037 0 -0.9063068)
(0 1 -0)
(0.25881193 0 -0.96592773)
(0 1 -0)
(0.08716211 0 -0.99619414)
(0 1 -0)
(0.99619493 0 -0.087153051)
(0 1 -0)
(0.9659259 0 -0.25881876)
(0 1 -0)
(0.90630872 0 -0.42261626)
(0 1 0)
(0.90630872 0 0.42261626)
(0 1 0)
(0.96592523 0 0.25882126)
(0 1 0)
(0.99619501 0 0.087152182)
(0 1 0)
(0.70710678 0 0.70710678)
(0 1 0)
(0.81915295 0 0.57357514)
(0 1 0)
(0.25882126 0 0.96592523)
(0 1 0)
(0.42261626 0 0.90630872)
(0 1 0)
(0.57357514 0 0.81915295)
(0 1 -0)
(0.81914966 0 -0.57357984)
(0 1 -0)
(0.70711178 0 -0.70710178)
(0 1 -0)
(0.57357178 0 -0.8191553)
(0 1 0)
(-0.25881876 0 0.9659259)
(0 1 0)
(-0.087153051 0 0.99619493)
(0 1 0)
(0.087152182 0 0.99619501)
(0 1 0)
(-0.70710178 0 0.70711178)
(0 1 0)
(-0.57357984 0 0.81914966)
(0 1 0)
(-0.42261626 0 0.90630872)
(0 1 0)
(-0.9063068 0 0.42262037)
(0 1 0)
(-0.8191553 0 0.57357178)
(-0 1 0)
(-0.99619406 -0 -0.087162979)
(0 1 0)
(-0.99619414 0 0.08716211)
(0 1 0)
(-0.96592773 0 0.25881193)
(-0 1 0)
(-0.81915201 -0 -0.57357648)
(-0 1 0)
(-0.9063068 -0 -0.42262037)
(-0 1 0)
(-0.9659284 -0 -0.25880943)
(0 -1 0)
(-0.70710178 0 0.70711178)
(0 -1 -0)
(0.70710678 0 -0.70710678)
(0 -1 0)
(-0.8191553 0 0.57357178)
(0 -1 -0)
(0.81915492 0 -0.57357233)
(0 -1 0)
(-0.9063068 0 0.42262037)
(0 -1 -0)
(0.90630796 0 -0.42261788)
(0 -1 0)
(-0.96592773 0 0.25881193)
(0 -1 -0)
(0.96592591 0 -0.25881873)
(0 -1 0)
(-0.99619414 0 0.08716211)
(0 -1 0)
(0.99619408 0 -0.087162848)
(0 -1 0)
(-0.99619406 -0 -0.087162979)
(0 -1 0)
(0.996194 0 0.087163693)
(0 -1 0)
(-0.9659284 -0 -0.25880943)
(0 -1 0)
(0.96592591 0 0.25881873)
(0 -1 0)
(-0.9063068 -0 -0.42262037)
(0 -1 0)
(0.9063097 0 0.42261416)
(0 -1 0)
(-0.81915201 -0 -0.57357648)
(0 -1 0)
(0.81915492 0 0.57357233)
(0 -1 0)
(-0.70710678 -0 -0.70710678)
(0 -1 0)
(0.70710678 0 0.70710678)
(0 -1 0)
(-0.57357648 -0 -0.81915201)
(0 -1 0)
(0.57357233 0 0.81915492)
(0 -1 0)
(-0.42262037 -0 -0.9063068)
(0 -1 0)
(0.42261416 0 0.9063097)
(0 -1 0)
(-0.25880943 -0 -0.9659284)
(0 -1 0)
(0.25881873 0 0.96592591)
(0 -1 0)
(-0.087162979 -0 -0.99619406)
(0 -1 0)
(0.087163693 0 0.996194)
(-0 -1 0)
(0.08716211 0 -0.99619414)
(0 -1 0)
(-0.087162848 0 0.99619408)
(-0 -1 0)
(0.25881193 0 -0.96592773)
(0 -1 0)
(-0.25881873 0 0.96592591)
(-0 -1 0)
(0.42262037 0 -0.9063068)
(0 -1 0)
(-0.42261788 0 0.90630796)
(-0 -1 0)
(0.57357178 0 -0.8191553)
(0 -1 0)
(-0.57357233 0 0.81915492)
(-0 -1 0)
(0.70711178 0 -0.70710178)
(0 -1 0)
(-0.70710678 0 0.70710678)
(-0 -1 0)
(0.81914966 0 -0.57357984)
(0 -1 0)
(-0.81915035 0 0.57357886)
(-0 -1 0)
(0.90630872 0 -0.42261626)
(0 -1 0)
(-0.9063097 0 0.42261416)
(-0 -1 0)
(0.9659259 0 -0.25881876)
(0 -1 0)
(-0.96592591 0 0.25881873)
(-0 -1 0)
(0.99619493 0 -0.087153051)
(0 -1 0)
(-0.99619485 0 0.08715404)
(-0 -1 -0)
(0.99619501 0 0.087152182)
(-0 -1 0)
(-0.99619492 -0 -0.087153195)
(0 -1 -0)
(0.96592523 0 0.25882126)
(-0 -1 0)
(-0.96592591 -0 -0.25881873)
(0 -1 -0)
(0.90630872 0 0.42261626)
(-0 -1 0)
(-0.90630796 -0 -0.42261788)
(0 -1 -0)
(0.81915295 0 0.57357514)
(-0 -1 0)
(-0.81915035 -0 -0.57357886)
(0 -1 -0)
(0.70710678 0 0.70710678)
(-0 -1 0)
(-0.70710678 -0 -0.70710678)
(0 -1 -0)
(0.57357514 0 0.81915295)
(-0 -1 0)
(-0.57357886 -0 -0.81915035)
(0 -1 -0)
(0.42261626 0 0.90630872)
(-0 -1 0)
(-0.42261788 -0 -0.90630796)
(0 -1 -0)
(0.25882126 0 0.96592523)
(-0 -1 0)
(-0.25881873 -0 -0.96592591)
(0 -1 -0)
(0.087152182 0 0.99619501)
(0 -1 -0)
(-0.087153195 -0 -0.99619492)
(0 -1 0)
(-0.087153051 0 0.99619493)
(0 -1 -0)
(0.08715404 0 -0.99619485)
(0 -1 0)
(-0.25881876 0 0.9659259)
(0 -1 -0)
(0.25881873 0 -0.96592591)
(0 -1 0)
(-0.42261626 0 0.90630872)
(0 -1 -0)
(0.42261416 0 -0.9063097)
(0 -1 0)
(-0.57357984 0 0.81914966)
(0 -1 -0)
(0.57357886 0 -0.81915035)
(-0.12787586 0.0014731241 0.99178909)
(0 1 0)
(0 -0.0010832068 0.99999941)
(0 -1 0)
(-0.127876 -5.4621793e-06 0.99179016)
(0 -1 0)
(0.12787583 -6.5006336e-05 0.99179018)
(0 -1 0)
(-0.032044736 0.0011417157 0.99948578)
(0 1 0)
(0.032044839 0.00036450487 0.99948637)
(0 1 0)
(0.12787582 -0.00033834306 0.99179013)
(0 1 0)
(-0.2536597 0 0.96729352)
(0 1 0)
(-0.2536597 0 0.96729352)
(0 -1 0)
(-0.37526241 0 0.92691862)
(-0 1 0)
(-0.37526241 0 0.92691862)
(0 -1 0)
(-0.49072338 0 0.87131542)
(0 1 0)
(-0.49072338 0 0.87131542)
(0 -1 0)
(-0.59810825 0 0.80141532)
(0 1 0)
(-0.59810825 0 0.80141532)
(0 -1 0)
(-0.69568059 0 0.71835125)
(-0 1 0)
(-0.69568059 0 0.71835125)
(0 -1 0)
(-0.78183303 0 0.62348787)
(0 1 0)
(-0.78183303 0 0.62348787)
(0 -1 0)
(-0.85514129 0 0.51839499)
(0 1 0)
(-0.85514129 0 0.51839499)
(0 -1 0)
(-0.91441349 0 0.4047814)
(-0 1 0)
(-0.91441349 0 0.4047814)
(0 -1 0)
(-0.95866779 0 0.28452779)
(0 1 0)
(-0.95866779 0 0.28452779)
(0 -1 -0)
(-0.98718179 0 0.15959984)
(0 1 0)
(-0.98718179 0 0.15959984)
(0 -1 0)
(-0.99948622 0 0.0320514)
(0 1 0)
(-0.99948622 0 0.0320514)
(-0 -1 0)
(-0.99537914 0 -0.096022765)
(0 1 0)
(-0.99537914 0 -0.096022765)
(0 -1 0)
(-0.97492792 0 -0.2225209)
(0 1 0)
(-0.97492792 0 -0.2225209)
(0 -1 0)
(-0.93846839 0 -0.34536515)
(0 1 -0)
(-0.93846839 0 -0.34536515)
(0 -1 0)
(-0.88659928 0 -0.46253835)
(0 1 0)
(-0.88659928 0 -0.46253835)
(0 -1 0)
(-0.82017241 0 -0.57211644)
(0 1 0)
(-0.82017241 0 -0.57211644)
(0 -1 0)
(-0.7402782 0 -0.67230067)
(0 1 -0)
(-0.7402782 0 -0.67230067)
(0 -1 0)
(-0.64822771 0 -0.76144654)
(0 1 0)
(-0.64822771 0 -0.76144654)
(0 -1 0)
(-0.5455356 0 -0.83808765)
(0 1 0)
(-0.5455356 0 -0.83808765)
(0 -1 0)
(-0.43388375 0 -0.90096886)
(0 1 -0)
(-0.43388375 0 -0.90096886)
(0 -1 0)
(-0.31510787 0 -0.94905586)
(0 1 0)
(-0.31510787 0 -0.94905586)
(0 -1 0)
(-0.19115844 0 -0.98155919)
(0 1 0)
(-0.19115844 0 -0.98155919)
(0 -1 0)
(-0.06407059 0 -0.99794537)
(0 1 -0)
(-0.06407059 0 -0.99794537)
(0 -1 -0)
(0.064070675 0 -0.99794536)
(0 1 0)
(0.064070675 0 -0.99794536)
(0 -1 0)
(0.19115819 0 -0.98155924)
(0 1 0)
(0.19115819 0 -0.98155924)
(0 -1 0)
(0.31510827 0 -0.94905573)
(0 1 0)
(0.31510827 0 -0.94905573)
(0 -1 0)
(0.4338822 0 -0.90096961)
(0 1 0)
(0.4338822 0 -0.90096961)
(0 -1 0)
(0.54553514 0 -0.83808795)
(0 1 0)
(0.54553514 0 -0.83808795)
(0 -1 0)
(0.6482326 0 -0.76144237)
(0 1 0)
(0.6482326 0 -0.76144237)
(0 -1 0)
(0.74027351 0 -0.67230583)
(0 1 0)
(0.74027351 0 -0.67230583)
(0 -1 0)
(0.82017322 0 -0.57211527)
(0 1 0)
(0.82017322 0 -0.57211527)
(0 -1 0)
(0.88660046 0 -0.46253607)
(0 1 0)
(0.88660046 0 -0.46253607)
(0 -1 0)
(0.93846746 0 -0.34536766)
(0 1 0)
(0.93846746 0 -0.34536766)
(0 -1 0)
(0.97492823 0 -0.22251953)
(0 1 0)
(0.97492823 0 -0.22251953)
(0 -1 0)
(0.9953793 0 -0.096021137)
(0 1 0)
(0.9953793 0 -0.096021137)
(0 -1 0)
(0.99948629 -0 0.032049324)
(-0 1 0)
(0.99948629 0 0.032049324)
(0 -1 0)
(0.98718138 -0 0.15960236)
(0 1 0)
(0.98718138 0 0.15960236)
(0 -1 0)
(0.95866736 -0 0.28452924)
(0 1 0)
(0.95866736 0 0.28452924)
(0 -1 0)
(0.91441278 -0 0.40478299)
(0 1 0)
(0.91441278 0 0.40478299)
(0 -1 0)
(0.85514368 -0 0.51839106)
(0 1 0)
(0.85514368 0 0.51839106)
(0 -1 0)
(0.78183174 -0 0.62348948)
(0 1 0)
(0.78183174 0 0.62348948)
(0 -1 0)
(0.69567894 -0 0.71835285)
(0 1 0)
(0.69567894 0 0.71835285)
(0 -1 0)
(0.59811 -0 0.80141402)
(0 1 0)
(0.59811 0 0.80141402)
(-0 -1 0)
(0.49072281 -0 0.87131574)
(0 1 0)
(0.49072281 0 0.87131574)
(0 -1 0)
(0.37526367 -0 0.92691811)
(0 1 0)
(0.37526367 0 0.92691811)
(0 -1 0)
(0.25365978 -0 0.9672935)
(0 1 0)
(0.25365978 0 0.9672935)
(0 -1 0)
(0.092828018 -0.010938087 -0.99562208)
(0.80327706 -0.59560554 0)
(0.098584669 -0.0095044682 -0.99508328)
(0.85215664 -0.52328679 2.8533546e-07)
(0.10121717 -0.0088713773 -0.9948248)
(0.87519825 -0.48376442 2.930507e-07)
(0.10565768 -0.007827786 -0.99437175)
(0.91098021 -0.41245001 -0.00019603147)
(0.10934832 -0.00701974 -0.99397871)
(0.93712477 -0.34899451 -9.3369118e-07)
(0.11448596 -0.005903032 -0.99340733)
(0.96254458 -0.27112346 -7.2535693e-07)
(0.1203035 -0.0047226736 -0.99272593)
(0.98252034 -0.18615528 0)
(0.12400486 -0.0039785598 -0.99227364)
(0.99010193 -0.14035017 0)
(0.13398283 -0.0020164121 -0.9909816)
(0.99856875 -0.053483113 0)
(0.1084098 0.0017129372 -0.99410481)
(0.99008414 0.14047563 1.6541786e-07)
(0.097205184 0.00027587619 -0.99526432)
(0.98115166 0.19323929 1.6392547e-07)
(0.094763088 0.00023742152 -0.99549982)
(0.96432167 0.26473271 -0.00056160291)
(0.093034364 0.0002124904 -0.99566288)
(0.94436014 0.32890412 -0.0024501884)
(0.090411343 0.00017580235 -0.99590449)
(0.92552042 0.3786977 -8.5840123e-07)
(0.086715214 0.00012939554 -0.99623313)
(0.88903653 0.45783628 0)
(0.085690774 0.00011872801 -0.99632177)
(0.86341914 0.50448725 0)
(0.081005396 7.1172839e-05 -0.99671366)
(0.83223125 0.55442865 -0.00011928889)
(0.076614361 3.9473175e-05 -0.9970608)
(0.78400607 0.62075316 0)
(-0.057716706 -1.8811615e-05 -0.998333)
(-0.59332849 -0.80496043 -9.9649973e-08)
(-0.050729072 -0.00020864702 -0.99871243)
(-0.52092961 -0.85359702 -0.0021155831)
(-0.044782145 -0.00042925854 -0.99899668)
(-0.45721794 -0.88935468 -3.845399e-07)
(-0.037298594 -0.00086393038 -0.99930379)
(-0.37809282 -0.92576625 -0.001633847)
(-0.032591963 -0.0012198557 -0.999468)
(-0.33312451 -0.94288285 2.8022978e-06)
(-0.025976444 -0.0017504041 -0.99966102)
(-0.26182497 -0.96511533 -0.00028218491)
(-0.018506617 -0.0025788135 -0.99982541)
(-0.18644657 -0.98246192 -0.0024996649)
(-0.0097658781 -5.4690262e-05 -0.99995231)
(-0.10072812 -0.99491399 -6.7913916e-08)
(-0.0015314895 -0 -0.99999883)
(-0.01359073 -0.99990764 0)
(0.0035845306 -0.0045487956 -0.99998323)
(0.035488749 -0.99937008 0)
(0.012344012 -0.0033008361 -0.99991836)
(0.12229039 -0.99249436 0)
(0.01698443 -0.0027571639 -0.99985195)
(0.17825863 -0.98398367 0)
(0.024438373 -0.0018996287 -0.99969953)
(0.24549978 -0.96939647 -0.00058069983)
(0.03188879 -0.0012730574 -0.99949061)
(0.3249627 -0.94572684 2.4839132e-06)
(0.038578668 -0.00076715459 -0.99925527)
(0.39314222 -0.91947768 2.323958e-06)
(0.046409459 -0.00036890741 -0.99892243)
(0.47176574 -0.88172393 -5.5548531e-07)
(0.053024069 -0.00012350117 -0.99859323)
(0.54441457 -0.8388163 -6.410264e-07)
(0.059895981 -1.1573282e-05 -0.99820462)
(0.6154443 -0.78818038 0)
(0.063379771 0 -0.99798948)
(0.65024524 -0.75972437 0)
(0.082513312 -0.013744827 -0.99649517)
(0.7073763 -0.70683711 -0.00027130315)
(0.08810392 -0.012215146 -0.99603639)
(0.76027165 -0.64960528 0)
(-0.082492272 0.0030640482 -0.99658699)
(-0.80596982 0.59195662 2.7028471e-07)
(-0.088214175 0.0027427239 -0.99609775)
(-0.85452143 0.51941613 1.4306364e-07)
(-0.09012046 0.0026380543 -0.99592738)
(-0.87833993 0.47803657 1.4705133e-07)
(-0.09458409 0.0023987379 -0.99551399)
(-0.91664109 0.39971129 0)
(-0.10473268 0.0018820926 -0.99449863)
(-0.93948772 0.34258257 0)
(-0.10148846 0.0020472005 -0.99483461)
(-0.96584062 0.25913684 -4.6191501e-05)
(-0.098713222 0.0021812539 -0.99511353)
(-0.98472963 0.17409063 0)
(-0.15769217 0.0025334118 -0.98748507)
(-0.99918381 0.040394513 0)