/*--------------------------------*- C++ -*----------------------------------*\
  =========                 |
  \\      /  F ield         | OpenFOAM: The Open Source CFD Toolbox
   \\    /   O peration     | Website:  https://openfoam.org
    \\  /    A nd           | Version:  9
     \\/     M anipulation  |
\*---------------------------------------------------------------------------*/
FoamFile
{
    format      ascii;
    class       extendedFeatureEdgeMesh;
    location    "constant/extendedFeatureEdgeMesh";
    object      drafttube.extendedFeatureEdgeMesh;
}
// * * * * * * * * * * * * * * * * * * * * * * * * * * * * * * * * * * * * * //

// points

16
(
(319.32401 495.15939 294.07001)
(319.32401 495.15939 434.07001)
(319.32401 45.159409 294.07001)
(319.32401 45.159409 434.07001)
(179.32401 495.15939 294.07001)
(179.32401 45.159409 294.07001)
(179.32401 495.15939 434.07001)
(179.32401 45.159409 434.07001)
(317.32401 495.15939 432.07001)
(317.32401 495.15939 296.07001)
(181.32401 495.15939 296.07001)
(181.32401 495.15939 432.07001)
(317.32401 45.159409 432.07001)
(181.32401 45.159409 432.07001)
(181.32401 45.159409 296.07001)
(317.32401 45.159409 296.07001)
)

// edges

24
(
(2 0)
(0 1)
(1 3)
(3 2)
(5 4)
(4 0)
(2 5)
(7 6)
(6 4)
(5 7)
(1 6)
(7 3)
(9 8)
(10 9)
(11 10)
(8 11)
(13 12)
(14 13)
(15 14)
(12 15)
(11 13)
(14 10)
(15 9)
(12 8)
)

// concaveStart mixedStart nonFeatureStart
8 8 16
// internalStart flatStart openStart multipleStart
20 24 24 24
// normals

32
(
(1 0 -0)
(0 0 -1)
(-0 1 0)
(1 0 0)
(0 0 1)
(0 -1 0)
(0 0 -1)
(-1 0 0)
(0 1 0)
(0 -1 -0)
(-1 -0 -0)
(0 0 1)
(0 1 0)
(-0 -1 0)
(0 1 -0)
(0 -1 0)
(-0 1 0)
(-1 0 0)
(0 1 0)
(-0 0 1)
(0 1 -0)
(1 0 0)
(0 1 -0)
(-0 0 -1)
(0 -1 0)
(0 0 -1)
(-0 -1 -0)
(1 -0 0)
(0 -1 -0)
(0 0 1)
(0 -1 0)
(-1 0 0)
)

// normal volume types

32
(
0
0
0
0
0
0
0
0
0
0
0
0
0
0
0
0
0
0
0
0
0
0
0
0
0
0
0
0
0
0
0
0
)

// normalDirections

24
(
2(1 -1)
2(1 -1)
2(1 -1)
2(1 -1)
2(1 -1)
2(1 -1)
2(1 -1)
2(1 -1)
2(1 -1)
2(1 -1)
2(1 -1)
2(1 -1)
2(1 -1)
2(1 -1)
2(1 -1)
2(1 -1)
2(1 -1)
2(1 -1)
2(1 -1)
2(1 -1)
2(1 -1)
2(1 -1)
2(1 -1)
2(1 -1)
)

// edgeNormals

24
(
2(0 1)
2(0 2)
2(3 4)
2(3 5)
2(6 7)
2(6 8)
2(1 9)
2(10 11)
2(10 12)
2(7 13)
2(4 14)
2(11 15)
2(16 17)
2(18 19)
2(20 21)
2(22 23)
2(24 25)
2(26 27)
2(28 29)
2(30 31)
2(27 23)
2(21 29)
2(19 31)
2(17 25)
)

// featurePointNormals

16
(
3(0 1 2)
3(0 2 4)
3(0 1 5)
3(3 4 5)
3(6 7 8)
3(6 7 9)
3(10 11 12)
3(10 11 13)
3(16 17 23)
3(16 17 19)
3(18 19 21)
3(20 21 23)
3(24 25 31)
3(24 25 27)
3(26 27 29)
3(28 29 31)
)

// featurePointEdges

16
(
3(0 5 1)
3(2 10 1)
3(3 6 0)
3(2 11 3)
3(4 8 5)
3(6 9 4)
3(7 10 8)
3(9 11 7)
3(15 23 12)
3(13 22 12)
3(14 21 13)
3(15 20 14)
3(19 23 16)
3(17 20 16)
3(18 21 17)
3(19 22 18)
)

// regionEdges
0()


// ************************************************************************* //
