/*--------------------------------*- C++ -*----------------------------------*\
  =========                 |
  \\      /  F ield         | OpenFOAM: The Open Source CFD Toolbox
   \\    /   O peration     | Website:  https://openfoam.org
    \\  /    A nd           | Version:  9
     \\/     M anipulation  |
\*---------------------------------------------------------------------------*/
FoamFile
{
    format      ascii;
    class       extendedFeatureEdgeMesh;
    location    "constant/extendedFeatureEdgeMesh";
    object      inlet.extendedFeatureEdgeMesh;
}
// * * * * * * * * * * * * * * * * * * * * * * * * * * * * * * * * * * * * * //

// points

8404
(
(224.32401 0.15940361 389.07001)
(224.32401 0.15940361 339.07001)
(274.32401 0.15940361 389.07001)
(274.32401 0.15940361 339.07001)
(249.32401 5.1594028 363.57001)
(249.4534 5.1594028 363.5871)
(249.757 5.1594028 363.82001)
(249.8069 5.1594028 363.94061)
(249.4534 5.1594028 364.55301)
(249.32401 5.1594028 364.57001)
(248.841 5.1594028 363.94061)
(248.89101 5.1594028 363.82001)
(252.757 5.1594028 363.82001)
(252.8069 5.1594028 363.94061)
(252.07401 5.1594028 364.50311)
(251.9704 5.1594028 364.42361)
(251.841 5.1594028 363.94061)
(251.89101 5.1594028 363.82001)
(251.9704 5.1594028 363.71649)
(252.07401 5.1594028 363.63699)
(255.757 5.1594028 363.82001)
(255.8069 5.1594028 363.94061)
(254.841 5.1594028 363.94061)
(254.89101 5.1594028 363.82001)
(258.57401 5.1594028 363.63699)
(258.67749 5.1594028 363.71649)
(258.75699 5.1594028 363.82001)
(258.80688 5.1594028 363.94061)
(258.67749 5.1594028 364.42361)
(258.57401 5.1594028 364.50311)
(257.841 5.1594028 363.94061)
(257.89099 5.1594028 363.82001)
(261.75699 5.1594028 363.82001)
(261.80688 5.1594028 363.94061)
(260.841 5.1594028 363.94061)
(260.89099 5.1594028 363.82001)
(264.75699 5.1594028 363.82001)
(264.80688 5.1594028 363.94061)
(263.841 5.1594028 363.94061)
(263.89099 5.1594028 363.82001)
(267.4534 5.1594028 363.5871)
(267.57401 5.1594028 363.63699)
(267.75699 5.1594028 363.82001)
(267.80688 5.1594028 363.94061)
(267.57401 5.1594028 364.50311)
(267.4534 5.1594028 364.55301)
(266.841 5.1594028 363.94061)
(266.89099 5.1594028 363.82001)
(270.75699 5.1594028 363.82001)
(270.80688 5.1594028 363.94061)
(269.841 5.1594028 363.94061)
(269.89099 5.1594028 363.82001)
(273.75699 5.1594028 363.82001)
(273.80688 5.1594028 363.94061)
(272.841 5.1594028 363.94061)
(272.89099 5.1594028 363.82001)
(229.85941 5.1594028 345.19159)
(229.963 5.1594028 345.271)
(229.2558 5.1594028 345.271)
(229.35941 5.1594028 345.19159)
(261.2738 5.1594028 367.73651)
(261.22391 5.1594028 367.85709)
(260.35779 5.1594028 367.85709)
(260.30789 5.1594028 367.73651)
(263.52811 5.1594028 368.9743)
(263.40759 5.1594028 368.92441)
(263.40759 5.1594028 368.05841)
(263.52811 5.1594028 368.00839)
(269.64099 5.1594028 369.8269)
(269.74451 5.1594028 369.9064)
(269.74451 5.1594028 370.61349)
(269.64099 5.1594028 370.6929)
(252.0527 5.1594028 365.327)
(252.1562 5.1594028 365.40649)
(252.1562 5.1594028 366.11359)
(252.0527 5.1594028 366.19299)
(254.63499 5.1594028 367.8035)
(254.5314 5.1594028 367.883)
(254.0314 5.1594028 367.883)
(253.9278 5.1594028 367.8035)
(261.84698 5.1594028 372.0369)
(261.9675 5.1594028 372.08679)
(261.9675 5.1594028 372.95291)
(261.84698 5.1594028 373.00281)
(264.5498 5.1594028 373.85629)
(264.6293 5.1594028 373.95981)
(263.76321 5.1594028 373.95981)
(263.84271 5.1594028 373.85629)
(269.65369 5.1594028 377.58969)
(269.63669 5.1594028 377.71909)
(268.67068 5.1594028 377.71909)
(268.65369 5.1594028 377.58969)
(257.28879 5.1594028 373.58139)
(257.23889 5.1594028 373.702)
(256.3728 5.1594028 373.702)
(256.32291 5.1594028 373.58139)
(258.6763 5.1594028 375.29749)
(258.6763 5.1594028 376.29749)
(258.54691 5.1594028 376.28049)
(258.54691 5.1594028 375.31461)
(262.85031 5.1594028 380.23849)
(262.90021 5.1594028 380.3591)
(261.9343 5.1594028 380.3591)
(261.98419 5.1594028 380.23849)
(264.77069 5.1594028 382.96341)
(264.7207 5.1594028 383.08401)
(263.85471 5.1594028 383.08401)
(263.80481 5.1594028 382.96341)
(254.19099 5.1594028 375.11111)
(254.2081 5.1594028 375.24051)
(253.2081 5.1594028 375.24051)
(253.2251 5.1594028 375.11111)
(255.05409 5.1594028 377.6001)
(255.15759 5.1594028 377.6796)
(254.4505 5.1594028 377.6796)
(254.55409 5.1594028 377.6001)
(256.38309 5.1594028 380.9552)
(256.3331 5.1594028 381.07581)
(255.4671 5.1594028 381.07581)
(255.4171 5.1594028 380.9552)
(257.3497 5.1594028 383.2648)
(257.42911 5.1594028 383.36841)
(257.42911 5.1594028 383.86841)
(257.3497 5.1594028 383.97189)
(249.41879 5.1594028 370.4068)
(249.33929 5.1594028 370.30331)
(249.33929 5.1594028 369.80331)
(249.41879 5.1594028 369.69971)
(250.5743 5.1594028 376.39001)
(250.4707 5.1594028 376.46951)
(249.9707 5.1594028 376.46951)
(249.8672 5.1594028 376.39001)
(250.79849 5.1594028 378.6745)
(250.8779 5.1594028 378.77811)
(250.0119 5.1594028 378.77811)
(250.0914 5.1594028 378.6745)
(250.9191 5.1594028 381.5867)
(251.02271 5.1594028 381.6662)
(250.3156 5.1594028 381.6662)
(250.4191 5.1594028 381.5867)
(251.1433 5.1594028 385.44431)
(251.02271 5.1594028 385.49429)
(250.7639 5.1594028 385.49429)
(250.6433 5.1594028 385.44431)
(247.3213 5.1594028 372.34439)
(247.3213 5.1594028 373.34439)
(247.19189 5.1594028 373.32739)
(247.19189 5.1594028 372.36139)
(246.48621 5.1594028 378.694)
(246.4691 5.1594028 378.82339)
(245.5032 5.1594028 378.82339)
(245.48621 5.1594028 378.694)
(245.448 5.1594028 381.1358)
(245.5686 5.1594028 381.1857)
(245.8186 5.1594028 381.61871)
(245.80161 5.1594028 381.7482)
(245.5686 5.1594028 382.05179)
(245.448 5.1594028 382.10172)
(244.8356 5.1594028 381.7482)
(244.8186 5.1594028 381.61871)
(244.901 5.1594028 384.1105)
(245.00459 5.1594028 384.19)
(244.2975 5.1594028 384.19)
(244.401 5.1594028 384.1105)
(245.257 5.1594028 371.61429)
(245.3069 5.1594028 371.73489)
(244.341 5.1594028 371.73489)
(244.39101 5.1594028 371.61429)
(242.3069 5.1594028 376.931)
(242.32401 5.1594028 377.06039)
(241.32401 5.1594028 377.06039)
(241.341 5.1594028 376.931)
(239.89101 5.1594028 379.90851)
(239.841 5.1594028 379.7879)
(239.841 5.1594028 379.52911)
(239.89101 5.1594028 379.40851)
(247.1248 5.1594028 365.6106)
(247.2542 5.1594028 365.62759)
(247.2542 5.1594028 366.59351)
(247.1248 5.1594028 366.6106)
(245.27921 5.1594028 367.79749)
(245.3587 5.1594028 367.90109)
(244.4926 5.1594028 367.90109)
(244.5721 5.1594028 367.79749)
(240.9604 5.1594028 371.98209)
(241.0103 5.1594028 372.10269)
(241.0103 5.1594028 372.36151)
(240.9604 5.1594028 372.48209)
(238.6817 5.1594028 373.9191)
(238.7612 5.1594028 374.02261)
(238.0782 5.1594028 374.7056)
(237.97459 5.1594028 374.62619)
(237.8952 5.1594028 374.02261)
(237.97459 5.1594028 373.9191)
(238.0782 5.1594028 373.8396)
(236.612 5.1594028 376.4426)
(236.562 5.1594028 376.5632)
(235.696 5.1594028 376.5632)
(235.6461 5.1594028 376.4426)
(234.2834 5.1594028 378.70721)
(234.1799 5.1594028 378.78671)
(233.6799 5.1594028 378.78671)
(233.57629 5.1594028 378.70721)
(232.2137 5.1594028 380.2648)
(232.2307 5.1594028 380.3942)
(231.2307 5.1594028 380.3942)
(231.2478 5.1594028 380.2648)
(268.96341 5.1594028 386.8266)
(269.01331 5.1594028 386.9472)
(268.04739 5.1594028 386.9472)
(268.09729 5.1594028 386.8266)
(241.6483 5.1594028 367.72501)
(241.6982 5.1594028 367.84561)
(241.0858 5.1594028 368.45801)
(240.96519 5.1594028 368.40799)
(240.7323 5.1594028 367.84561)
(240.7822 5.1594028 367.72501)
(240.96519 5.1594028 367.54199)
(241.0858 5.1594028 367.492)
(233.10651 5.1594028 371.38)
(233.53951 5.1594028 371.63)
(233.58949 5.1594028 371.75049)
(233.10651 5.1594028 372.38)
(232.9771 5.1594028 372.36292)
(232.6236 5.1594028 371.75049)
(232.67349 5.1594028 371.63)
(232.9771 5.1594028 371.397)
(230.7572 5.1594028 373.53519)
(230.65359 5.1594028 373.61459)
(230.15359 5.1594028 373.61459)
(230.05009 5.1594028 373.53519)
(227.9507 5.1594028 374.0502)
(228.05431 5.1594028 374.1297)
(228.05431 5.1594028 374.83679)
(227.9507 5.1594028 374.91629)
(226.075 5.1594028 367.77649)
(226.02499 5.1594028 367.89709)
(225.159 5.1594028 367.89709)
(225.1091 5.1594028 367.77649)
(243.82401 5.1594028 362.92581)
(243.8739 5.1594028 363.04639)
(243.8739 5.1594028 363.30521)
(243.82401 5.1594028 363.42581)
(242.95799 5.1594028 363.42581)
(242.908 5.1594028 363.30521)
(242.908 5.1594028 363.04639)
(242.95799 5.1594028 362.92581)
(240.8575 5.1594028 362.9787)
(240.778 5.1594028 363.08221)
(240.07091 5.1594028 363.08221)
(239.9915 5.1594028 362.9787)
(228.9915 5.1594028 360.69019)
(229.0415 5.1594028 360.8107)
(228.07561 5.1594028 360.8107)
(228.1255 5.1594028 360.69019)
(226.02499 5.1594028 360.74301)
(225.9456 5.1594028 360.84659)
(225.23849 5.1594028 360.84659)
(225.159 5.1594028 360.74301)
(247.104 5.1594028 362.8978)
(247.05409 5.1594028 363.0184)
(246.188 5.1594028 363.0184)
(246.13811 5.1594028 362.8978)
(241.0858 5.1594028 360.6481)
(240.96519 5.1594028 360.59811)
(240.96519 5.1594028 359.73209)
(241.0858 5.1594028 359.6821)
(233.10651 5.1594028 355.7601)
(233.58949 5.1594028 356.3895)
(233.53951 5.1594028 356.5101)
(233.10651 5.1594028 356.7601)
(232.9771 5.1594028 356.7431)
(232.67349 5.1594028 356.5101)
(232.6236 5.1594028 356.3895)
(232.9771 5.1594028 355.77719)
(230.7572 5.1594028 354.60489)
(230.83659 5.1594028 354.7085)
(229.9706 5.1594028 354.7085)
(230.05009 5.1594028 354.60489)
(227.7007 5.1594028 353.1568)
(227.83009 5.1594028 353.17389)
(227.9507 5.1594028 353.22379)
(228.05431 5.1594028 353.30331)
(228.05431 5.1594028 354.01041)
(227.9507 5.1594028 354.08981)
(227.5713 5.1594028 353.17389)
(268.7804 5.1594028 341.49649)
(268.65979 5.1594028 341.54639)
(268.401 5.1594028 341.54639)
(268.2804 5.1594028 341.49649)
(240.9604 5.1594028 355.65799)
(241.0103 5.1594028 355.77859)
(241.0103 5.1594028 356.03741)
(240.9604 5.1594028 356.15799)
(238.7612 5.1594028 354.11749)
(238.6817 5.1594028 354.22101)
(238.0782 5.1594028 354.30051)
(237.97459 5.1594028 354.22101)
(237.8952 5.1594028 354.11749)
(237.97459 5.1594028 353.51389)
(238.0782 5.1594028 353.43439)
(236.562 5.1594028 351.5769)
(236.612 5.1594028 351.69751)
(235.6461 5.1594028 351.69751)
(235.696 5.1594028 351.5769)
(247.9534 5.1594028 360.98901)
(248.07401 5.1594028 361.039)
(248.07401 5.1594028 361.905)
(247.9534 5.1594028 361.9549)
(245.3069 5.1594028 356.40521)
(245.257 5.1594028 356.52579)
(244.39101 5.1594028 356.52579)
(244.341 5.1594028 356.40521)
(240.8069 5.1594028 348.3522)
(240.82401 5.1594028 348.4816)
(239.89101 5.1594028 348.7316)
(239.841 5.1594028 348.61099)
(239.82401 5.1594028 348.4816)
(239.841 5.1594028 348.3522)
(239.89101 5.1594028 348.2316)
(247.3213 5.1594028 354.79568)
(247.3213 5.1594028 355.79568)
(247.19189 5.1594028 355.77869)
(247.19189 5.1594028 354.81271)
(246.7831 5.1594028 352.85391)
(246.6537 5.1594028 352.87091)
(246.52431 5.1594028 352.85391)
(246.33971 5.1594028 349.09259)
(246.4192 5.1594028 349.19611)
(245.5531 5.1594028 349.19611)
(245.6326 5.1594028 349.09259)
(245.448 5.1594028 346.03839)
(245.5686 5.1594028 346.08829)
(245.5686 5.1594028 346.95441)
(245.448 5.1594028 347.0043)
(245.00459 5.1594028 343.9501)
(244.901 5.1594028 344.0296)
(244.401 5.1594028 344.0296)
(244.2975 5.1594028 343.9501)
(249.9017 5.1594028 360.72491)
(249.9812 5.1594028 360.8284)
(249.4187 5.1594028 361.5614)
(249.2982 5.1594028 361.51141)
(249.1151 5.1594028 360.8284)
(249.1946 5.1594028 360.72491)
(249.2982 5.1594028 360.64539)
(249.4187 5.1594028 360.59549)
(249.41879 5.1594028 358.4404)
(249.33929 5.1594028 358.33679)
(249.33929 5.1594028 357.83679)
(249.41879 5.1594028 357.73331)
(250.24651 5.1594028 354.6622)
(250.3501 5.1594028 354.7417)
(249.64301 5.1594028 354.7417)
(249.74651 5.1594028 354.6622)
(250.9449 5.1594028 349.112)
(250.9279 5.1594028 349.24139)
(249.96201 5.1594028 349.24139)
(249.9449 5.1594028 349.112)
(251.02271 5.1594028 342.64581)
(251.1433 5.1594028 342.6958)
(250.6433 5.1594028 342.6958)
(250.7639 5.1594028 342.64581)
(254.19099 5.1594028 352.7702)
(254.2081 5.1594028 352.8996)
(254.1411 5.1594028 353.1496)
(254.0616 5.1594028 353.25311)
(253.35451 5.1594028 353.25311)
(253.27499 5.1594028 353.1496)
(253.2081 5.1594028 352.8996)
(253.2251 5.1594028 352.7702)
(255.23711 5.1594028 350.3569)
(255.15759 5.1594028 350.46051)
(254.4505 5.1594028 350.46051)
(254.37109 5.1594028 350.3569)
(256.3331 5.1594028 347.0643)
(256.38309 5.1594028 347.18491)
(255.4171 5.1594028 347.18491)
(255.4671 5.1594028 347.0643)
(257.3497 5.1594028 344.16809)
(257.42911 5.1594028 344.2717)
(257.42911 5.1594028 344.7717)
(257.3497 5.1594028 344.87531)
(258.52521 5.1594028 341.4791)
(258.5751 5.1594028 341.5997)
(257.60919 5.1594028 341.5997)
(257.65909 5.1594028 341.4791)
(257.23889 5.1594028 354.43811)
(257.28879 5.1594028 354.55869)
(257.30579 5.1594028 354.68811)
(257.28879 5.1594028 354.8175)
(256.32291 5.1594028 354.8175)
(256.30579 5.1594028 354.68811)
(256.32291 5.1594028 354.55869)
(256.3728 5.1594028 354.43811)
(258.6763 5.1594028 351.84259)
(258.6763 5.1594028 352.84259)
(258.54691 5.1594028 352.8255)
(258.54691 5.1594028 351.85959)
(260.9003 5.1594028 350.35059)
(260.79681 5.1594028 350.43011)
(260.29681 5.1594028 350.43011)
(260.19321 5.1594028 350.35059)
(264.77069 5.1594028 345.1767)
(264.78769 5.1594028 345.30609)
(263.78769 5.1594028 345.30609)
(263.80481 5.1594028 345.1767)
(235.2662 5.1594028 341.47031)
(235.1456 5.1594028 341.42029)
(235.1456 5.1594028 340.55429)
(235.2662 5.1594028 340.5043)
(254.7814 5.1594028 360.69009)
(254.7644 5.1594028 360.81949)
(253.7984 5.1594028 360.81949)
(253.7814 5.1594028 360.69009)
(261.84698 5.1594028 355.1373)
(261.9675 5.1594028 355.18719)
(261.9675 5.1594028 356.05331)
(261.84698 5.1594028 356.10321)
(264.6293 5.1594028 354.1803)
(264.5498 5.1594028 354.28381)
(263.84271 5.1594028 354.28381)
(263.76321 5.1594028 354.1803)
(269.5867 5.1594028 350.30042)
(269.63669 5.1594028 350.42099)
(268.67068 5.1594028 350.42099)
(268.7207 5.1594028 350.30042)
(261.2738 5.1594028 360.66241)
(261.22391 5.1594028 360.78299)
(260.35779 5.1594028 360.78299)
(260.30789 5.1594028 360.66241)
(263.52811 5.1594028 360.13171)
(263.40759 5.1594028 360.0817)
(263.40759 5.1594028 359.2157)
(263.52811 5.1594028 359.1658)
(269.64099 5.1594028 357.4472)
(269.74451 5.1594028 357.52661)
(269.74451 5.1594028 358.2337)
(269.64099 5.1594028 358.3132)
(224.32401 5.1594028 389.07001)
(224.32401 5.1594028 339.07001)
(274.32401 5.1594028 339.07001)
(274.32401 5.1594028 389.07001)
(224.32401 5.1594028 386.9397)
(228.0233 5.1594028 389.07001)
(224.32401 5.1594028 349.134)
(224.32401 5.1594028 350.39169)
(249.3844 5.1594028 363.578)
(263.76529 5.1594028 373.95721)
(264.72781 5.1594028 383.06699)
(255.05611 5.1594028 377.60172)
(240.97591 5.1594028 372.44461)
(237.9454 5.1594028 373.95721)
(235.65669 5.1594028 376.46811)
(240.7408 5.1594028 367.82489)
(230.6554 5.1594028 373.61319)
(240.82961 5.1594028 363.01511)
(240.01939 5.1594028 363.01511)
(237.9454 5.1594028 354.18289)
(238.711 5.1594028 354.18289)
(239.8309 5.1594028 348.42889)
(240.817 5.1594028 348.42889)
(244.92329 5.1594028 344.01251)
(254.3978 5.1594028 350.39169)
(257.24149 5.1594028 354.4444)
(257.3049 5.1594028 354.6955)
(263.76529 5.1594028 354.18289)
(269.7388 5.1594028 357.52219)
(269.7388 5.1594028 358.2381)
(274.32401 5.1594028 360.77621)
(274.32401 5.1594028 356.4519)
(263.42691 5.1594028 360.08969)
(263.42691 5.1594028 359.2077)
(260.35501 5.1594028 360.77621)
(261.22672 5.1594028 360.77621)
(268.6828 5.1594028 350.39169)
(269.6246 5.1594028 350.39169)
(264.62729 5.1594028 354.18289)
(261.87061 5.1594028 356.09341)
(261.87061 5.1594028 355.14709)
(254.7701 5.1594028 360.77621)
(253.79269 5.1594028 360.77621)
(236.7265 5.1594028 339.07001)
(235.1505 5.1594028 339.07001)
(233.0182 5.1594028 339.07001)
(235.1505 5.1594028 340.55231)
(235.1505 5.1594028 341.4223)
(264.78091 5.1594028 345.254)
(263.79459 5.1594028 345.254)
(260.2468 5.1594028 350.39169)
(260.8468 5.1594028 350.39169)
(258.6655 5.1594028 351.84399)
(258.6655 5.1594028 352.84109)
(256.30679 5.1594028 354.6955)
(256.37021 5.1594028 354.4444)
(257.64001 5.1594028 341.52539)
(258.54431 5.1594028 341.52539)
(258.6655 5.1594028 339.07001)
(257.36499 5.1594028 339.07001)
(257.36499 5.1594028 344.18811)
(257.36499 5.1594028 344.85529)
(256.34229 5.1594028 347.08649)
(255.4579 5.1594028 347.08649)
(255.2104 5.1594028 350.39169)
(254.1275 5.1594028 353.1673)
(254.20239 5.1594028 352.85669)
(253.2137 5.1594028 352.85669)
(253.2886 5.1594028 353.1673)
(251.04919 5.1594028 342.6568)
(250.7374 5.1594028 342.6568)
(250.942 5.1594028 349.134)
(249.9478 5.1594028 349.134)
(249.7032 5.1594028 354.6955)
(250.2899 5.1594028 354.6955)
(249.3844 5.1594028 357.77802)
(249.3844 5.1594028 360.60971)
(249.3844 5.1594028 358.3956)
(249.9411 5.1594028 360.77621)
(247.9888 5.1594028 361.94019)
(247.9888 5.1594028 361.00369)
(249.1552 5.1594028 360.77621)
(249.3844 5.1594028 361.54721)
(244.37869 5.1594028 344.01251)
(245.4559 5.1594028 346.04169)
(245.4559 5.1594028 347.00101)
(246.37151 5.1594028 349.134)
(245.6008 5.1594028 349.134)
(246.5461 5.1594028 352.85669)
(246.76131 5.1594028 352.85669)
(247.2388 5.1594028 354.80649)
(247.2388 5.1594028 355.78479)
(239.87421 5.1594028 348.272)
(239.87421 5.1594028 348.69119)
(240.97591 5.1594028 359.72769)
(244.3604 5.1594028 356.4519)
(245.2876 5.1594028 356.4519)
(240.97591 5.1594028 355.6955)
(240.97591 5.1594028 356.12039)
(235.6899 5.1594028 351.59161)
(236.5681 5.1594028 351.59161)
(237.9852 5.1594028 353.5058)
(237.9852 5.1594028 354.2291)
(268.35019 5.1594028 341.52539)
(269.7388 5.1594028 339.07001)
(267.49951 5.1594028 339.07001)
(268.7106 5.1594028 341.52539)
(224.32401 5.1594028 353.1673)
(224.32401 5.1594028 354.18289)
(228.0233 5.1594028 354.03421)
(228.0233 5.1594028 353.27951)
(224.32401 5.1594028 352.85669)
(227.62131 5.1594028 353.1673)
(227.78011 5.1594028 353.1673)
(230.8266 5.1594028 354.6955)
(229.98061 5.1594028 354.6955)
(233.5636 5.1594028 356.4519)
(233.0182 5.1594028 355.77179)
(232.6494 5.1594028 356.4519)
(233.0182 5.1594028 356.7485)
(240.97591 5.1594028 360.60251)
(246.18671 5.1594028 363.01511)
(247.0554 5.1594028 363.01511)
(225.9996 5.1594028 360.77621)
(224.32401 5.1594028 360.77621)
(224.32401 5.1594028 363.01511)
(225.18449 5.1594028 360.77621)
(224.32401 5.1594028 356.4519)
(229.02721 5.1594028 360.77621)
(228.0899 5.1594028 360.77621)
(243.86099 5.1594028 363.01511)
(243.82671 5.1594028 363.41919)
(242.92101 5.1594028 363.01511)
(242.9552 5.1594028 363.41919)
(224.32401 5.1594028 367.82489)
(224.32401 5.1594028 371.68811)
(226.0549 5.1594028 367.82489)
(225.1291 5.1594028 367.82489)
(224.32401 5.1594028 363.8465)
(224.32401 5.1594028 373.95721)
(224.32401 5.1594028 375.12619)
(228.0233 5.1594028 374.1059)
(228.0233 5.1594028 374.8606)
(230.15179 5.1594028 373.61319)
(233.5636 5.1594028 371.68811)
(233.0182 5.1594028 371.3916)
(232.6494 5.1594028 371.68811)
(233.0182 5.1594028 372.36829)
(244.3604 5.1594028 371.68811)
(245.3002 5.1594028 367.82489)
(244.5511 5.1594028 367.82489)
(240.97591 5.1594028 367.5376)
(241.6897 5.1594028 367.82489)
(240.97591 5.1594028 368.41241)
(268.05051 5.1594028 386.9397)
(267.49951 5.1594028 389.07001)
(269.7388 5.1594028 389.07001)
(269.01019 5.1594028 386.9397)
(232.2142 5.1594028 380.2684)
(231.2473 5.1594028 380.2684)
(233.6299 5.1594028 378.74829)
(234.2298 5.1594028 378.74829)
(236.60139 5.1594028 376.46811)
(238.711 5.1594028 373.95721)
(237.9852 5.1594028 373.91101)
(237.9852 5.1594028 374.63431)
(240.97591 5.1594028 372.01971)
(245.2876 5.1594028 371.68811)
(247.2388 5.1594028 366.59561)
(247.2388 5.1594028 365.62561)
(239.87421 5.1594028 379.44891)
(239.87421 5.1594028 379.8681)
(242.3096 5.1594028 376.95139)
(241.3383 5.1594028 376.95139)
(244.92329 5.1594028 384.12759)
(244.37869 5.1594028 384.12759)
(245.4559 5.1594028 382.09839)
(245.81599 5.1594028 381.63809)
(245.4559 5.1594028 381.1391)
(244.82111 5.1594028 381.63809)
(245.4933 5.1594028 378.74829)
(246.479 5.1594028 378.74829)
(247.2388 5.1594028 372.35519)
(247.2388 5.1594028 373.3335)
(249.3844 5.1594028 369.74451)
(251.04919 5.1594028 385.48331)
(250.7374 5.1594028 385.48331)
(250.3521 5.1594028 381.63809)
(250.98621 5.1594028 381.63809)
(250.8551 5.1594028 378.74829)
(250.0347 5.1594028 378.74829)
(250.4725 5.1594028 376.46811)
(249.9689 5.1594028 376.46811)
(249.3844 5.1594028 370.36209)
(257.36499 5.1594028 383.28479)
(257.36499 5.1594028 383.952)
(256.34229 5.1594028 381.05359)
(255.4579 5.1594028 381.05359)
(254.552 5.1594028 377.60172)
(254.19299 5.1594028 375.12619)
(253.2231 5.1594028 375.12619)
(263.8476 5.1594028 383.06699)
(261.97189 5.1594028 380.2684)
(262.86261 5.1594028 380.2684)
(258.6655 5.1594028 375.29889)
(258.6655 5.1594028 376.29611)
(256.33609 5.1594028 373.61319)
(257.2756 5.1594028 373.61319)
(269.6521 5.1594028 377.60172)
(268.6553 5.1594028 377.60172)
(264.62729 5.1594028 373.95721)
(261.87061 5.1594028 372.04669)
(261.87061 5.1594028 372.99301)
(254.60699 5.1594028 367.82489)
(253.9558 5.1594028 367.82489)
(254.88 5.1594028 363.8465)
(252.7679 5.1594028 363.8465)
(252.064 5.1594028 366.1843)
(252.064 5.1594028 365.33569)
(249.3844 5.1594028 364.5621)
(252.064 5.1594028 364.49539)
(249.7679 5.1594028 363.8465)
(269.7388 5.1594028 369.90201)
(269.7388 5.1594028 370.6178)
(274.32401 5.1594028 371.68811)
(274.32401 5.1594028 367.82489)
(263.42691 5.1594028 368.9324)
(263.42691 5.1594028 368.05029)
(261.23721 5.1594028 367.82489)
(260.88 5.1594028 363.8465)
(260.34451 5.1594028 367.82489)
(261.76791 5.1594028 363.8465)
(229.9408 5.1594028 345.254)
(229.278 5.1594028 345.254)
(270.76791 5.1594028 363.8465)
(274.32401 5.1594028 363.8465)
(269.88 5.1594028 363.8465)
(274.32401 5.1594028 363.41919)
(273.76791 5.1594028 363.8465)
(272.88 5.1594028 363.8465)
(267.49951 5.1594028 364.53391)
(267.49951 5.1594028 363.6062)
(267.76791 5.1594028 363.8465)
(266.88 5.1594028 363.8465)
(263.88 5.1594028 363.8465)
(264.76791 5.1594028 363.8465)
(258.6655 5.1594028 364.4328)
(258.76791 5.1594028 363.8465)
(257.88 5.1594028 363.8465)
(258.6655 5.1594028 363.70731)
(255.7679 5.1594028 363.8465)
(252.064 5.1594028 363.64471)
(251.88 5.1594028 363.8465)
(248.88 5.1594028 363.8465)
(224.32401 5.1594028 342.6568)
(224.32401 5.1594028 344.01251)
(224.32401 5.1594028 347.08649)
(224.32401 5.1594028 348.42889)
(224.32401 5.1594028 345.254)
(224.32401 5.1594028 354.6955)
(224.32401 5.1594028 354.4444)
(224.32401 5.1594028 373.61319)
(224.32401 5.1594028 381.63809)
(224.32401 5.1594028 383.06699)
(224.32401 5.1594028 384.12759)
(224.32401 5.1594028 385.48331)
(224.32401 5.1594028 378.74829)
(224.32401 5.1594028 380.2684)
(224.32401 5.1594028 381.05359)
(230.96429 5.1594028 339.07001)
(228.0233 5.1594028 339.07001)
(224.32401 5.1594028 341.52539)
(224.32401 5.1594028 377.60172)
(224.32401 5.1594028 351.59161)
(224.32401 5.1594028 376.46811)
(224.32401 5.1594028 376.95139)
(224.32401 5.1594028 363.41919)
(230.96429 5.1594028 389.07001)
(233.0182 5.1594028 389.07001)
(235.1505 5.1594028 389.07001)
(236.7265 5.1594028 389.07001)
(237.9852 5.1594028 389.07001)
(239.87421 5.1594028 389.07001)
(240.97591 5.1594028 389.07001)
(245.4559 5.1594028 339.07001)
(240.97591 5.1594028 339.07001)
(237.9852 5.1594028 339.07001)
(239.87421 5.1594028 339.07001)
(245.4559 5.1594028 389.07001)
(252.064 5.1594028 339.07001)
(249.3844 5.1594028 339.07001)
(247.2388 5.1594028 339.07001)
(247.9888 5.1594028 339.07001)
(249.3844 5.1594028 389.07001)
(252.064 5.1594028 389.07001)
(247.2388 5.1594028 389.07001)
(247.9888 5.1594028 389.07001)
(259.89279 5.1594028 339.07001)
(261.87061 5.1594028 339.07001)
(263.42691 5.1594028 339.07001)
(265.36649 5.1594028 339.07001)
(265.36649 5.1594028 389.07001)
(263.42691 5.1594028 389.07001)
(261.87061 5.1594028 389.07001)
(259.89279 5.1594028 389.07001)
(258.6655 5.1594028 389.07001)
(257.36499 5.1594028 389.07001)
(274.32401 5.1594028 354.6955)
(274.32401 5.1594028 354.4444)
(274.32401 5.1594028 354.18289)
(274.32401 5.1594028 353.1673)
(274.32401 5.1594028 352.85669)
(274.32401 5.1594028 351.59161)
(274.32401 5.1594028 350.39169)
(274.32401 5.1594028 349.134)
(274.32401 5.1594028 348.42889)
(274.32401 5.1594028 347.08649)
(274.32401 5.1594028 345.254)
(274.32401 5.1594028 344.01251)
(274.32401 5.1594028 342.6568)
(274.32401 5.1594028 341.52539)
(274.32401 5.1594028 363.01511)
(274.32401 5.1594028 378.74829)
(274.32401 5.1594028 377.60172)
(274.32401 5.1594028 376.95139)
(274.32401 5.1594028 376.46811)
(274.32401 5.1594028 375.12619)
(274.32401 5.1594028 373.95721)
(274.32401 5.1594028 373.61319)
(274.32401 5.1594028 380.2684)
(274.32401 5.1594028 386.9397)
(274.32401 5.1594028 385.48331)
(274.32401 5.1594028 384.12759)
(274.32401 5.1594028 383.06699)
(274.32401 5.1594028 381.63809)
(274.32401 5.1594028 381.05359)
(249.57401 5.1594028 363.63699)
(249.67751 5.1594028 363.71649)
(249.82401 5.1594028 364.07001)
(249.8069 5.1594028 364.19949)
(249.757 5.1594028 364.32001)
(249.67751 5.1594028 364.42361)
(249.57401 5.1594028 364.50311)
(249.1946 5.1594028 364.55301)
(249.07401 5.1594028 364.50311)
(248.9704 5.1594028 364.42361)
(248.89101 5.1594028 364.32001)
(248.841 5.1594028 364.19949)
(248.82401 5.1594028 364.07001)
(248.9704 5.1594028 363.71649)
(249.07401 5.1594028 363.63699)
(249.1946 5.1594028 363.5871)
(266.53839 5.1594028 384.47241)
(266.409 5.1594028 384.45529)
(266.659 5.1594028 384.52231)
(266.7626 5.1594028 384.60181)
(266.8421 5.1594028 384.70529)
(266.892 5.1594028 384.8259)
(266.909 5.1594028 384.95529)
(266.892 5.1594028 385.08469)
(266.8421 5.1594028 385.20529)
(266.7626 5.1594028 385.3089)
(266.659 5.1594028 385.38831)
(266.53839 5.1594028 385.43829)
(266.409 5.1594028 385.45529)
(266.2796 5.1594028 385.43829)
(266.159 5.1594028 385.38831)
(266.05551 5.1594028 385.3089)
(265.97601 5.1594028 385.20529)
(265.92609 5.1594028 385.08469)
(265.909 5.1594028 384.95529)
(265.92609 5.1594028 384.8259)
(265.97601 5.1594028 384.70529)
(266.05551 5.1594028 384.60181)
(266.159 5.1594028 384.52231)
(266.2796 5.1594028 384.47241)
(252.4534 5.1594028 363.5871)
(252.32401 5.1594028 363.57001)
(252.57401 5.1594028 363.63699)
(252.67751 5.1594028 363.71649)
(252.82401 5.1594028 364.07001)
(252.8069 5.1594028 364.19949)
(252.757 5.1594028 364.32001)
(252.67751 5.1594028 364.42361)
(252.57401 5.1594028 364.50311)
(252.4534 5.1594028 364.55301)
(252.32401 5.1594028 364.57001)
(252.1946 5.1594028 364.55301)
(251.89101 5.1594028 364.32001)
(251.841 5.1594028 364.19949)
(251.82401 5.1594028 364.07001)
(252.1946 5.1594028 363.5871)
(255.4534 5.1594028 363.5871)
(255.32401 5.1594028 363.57001)
(255.57401 5.1594028 363.63699)
(255.67751 5.1594028 363.71649)
(255.82401 5.1594028 364.07001)
(255.8069 5.1594028 364.19949)
(255.757 5.1594028 364.32001)
(255.67751 5.1594028 364.42361)
(255.57401 5.1594028 364.50311)
(255.4534 5.1594028 364.55301)
(255.32401 5.1594028 364.57001)
(255.1946 5.1594028 364.55301)
(255.07401 5.1594028 364.50311)
(254.9704 5.1594028 364.42361)
(254.89101 5.1594028 364.32001)
(254.841 5.1594028 364.19949)
(254.82401 5.1594028 364.07001)
(254.9704 5.1594028 363.71649)
(255.07401 5.1594028 363.63699)
(255.1946 5.1594028 363.5871)
(258.4534 5.1594028 363.5871)
(258.32401 5.1594028 363.57001)
(258.82401 5.1594028 364.07001)
(258.80688 5.1594028 364.19949)
(258.75699 5.1594028 364.32001)
(258.4534 5.1594028 364.55301)
(258.32401 5.1594028 364.57001)
(258.19461 5.1594028 364.55301)
(258.07401 5.1594028 364.50311)
(257.9704 5.1594028 364.42361)
(257.89099 5.1594028 364.32001)
(257.841 5.1594028 364.19949)
(257.82401 5.1594028 364.07001)
(257.9704 5.1594028 363.71649)
(258.07401 5.1594028 363.63699)
(258.19461 5.1594028 363.5871)
(261.4534 5.1594028 363.5871)
(261.32401 5.1594028 363.57001)
(261.57401 5.1594028 363.63699)
(261.67749 5.1594028 363.71649)
(261.82401 5.1594028 364.07001)
(261.80688 5.1594028 364.19949)
(261.75699 5.1594028 364.32001)
(261.67749 5.1594028 364.42361)
(261.57401 5.1594028 364.50311)
(261.4534 5.1594028 364.55301)
(261.32401 5.1594028 364.57001)
(261.19461 5.1594028 364.55301)
(261.07401 5.1594028 364.50311)
(260.9704 5.1594028 364.42361)
(260.89099 5.1594028 364.32001)
(260.841 5.1594028 364.19949)
(260.82401 5.1594028 364.07001)
(260.9704 5.1594028 363.71649)
(261.07401 5.1594028 363.63699)
(261.19461 5.1594028 363.5871)
(264.4534 5.1594028 363.5871)
(264.32401 5.1594028 363.57001)
(264.57401 5.1594028 363.63699)
(264.67749 5.1594028 363.71649)
(264.82401 5.1594028 364.07001)
(264.80688 5.1594028 364.19949)
(264.75699 5.1594028 364.32001)
(264.67749 5.1594028 364.42361)
(264.57401 5.1594028 364.50311)
(264.4534 5.1594028 364.55301)
(264.32401 5.1594028 364.57001)
(264.19461 5.1594028 364.55301)
(264.07401 5.1594028 364.50311)
(263.9704 5.1594028 364.42361)
(263.89099 5.1594028 364.32001)
(263.841 5.1594028 364.19949)
(263.82401 5.1594028 364.07001)
(263.9704 5.1594028 363.71649)
(264.07401 5.1594028 363.63699)
(264.19461 5.1594028 363.5871)
(267.32401 5.1594028 363.57001)
(267.67749 5.1594028 363.71649)
(267.82401 5.1594028 364.07001)
(267.80688 5.1594028 364.19949)
(267.75699 5.1594028 364.32001)
(267.67749 5.1594028 364.42361)
(267.32401 5.1594028 364.57001)
(267.19461 5.1594028 364.55301)
(267.07401 5.1594028 364.50311)
(266.9704 5.1594028 364.42361)
(266.89099 5.1594028 364.32001)
(266.841 5.1594028 364.19949)
(266.82401 5.1594028 364.07001)
(266.9704 5.1594028 363.71649)
(267.07401 5.1594028 363.63699)
(267.19461 5.1594028 363.5871)
(270.4534 5.1594028 363.5871)
(270.32401 5.1594028 363.57001)
(270.57401 5.1594028 363.63699)
(270.67749 5.1594028 363.71649)
(270.82401 5.1594028 364.07001)
(270.80688 5.1594028 364.19949)
(270.75699 5.1594028 364.32001)
(270.67749 5.1594028 364.42361)
(270.57401 5.1594028 364.50311)
(270.4534 5.1594028 364.55301)
(270.32401 5.1594028 364.57001)
(270.19461 5.1594028 364.55301)
(270.07401 5.1594028 364.50311)
(269.9704 5.1594028 364.42361)
(269.89099 5.1594028 364.32001)
(269.841 5.1594028 364.19949)
(269.82401 5.1594028 364.07001)
(269.9704 5.1594028 363.71649)
(270.07401 5.1594028 363.63699)
(270.19461 5.1594028 363.5871)