/*--------------------------------*- C++ -*----------------------------------*\
  =========                 |
  \\      /  F ield         | OpenFOAM: The Open Source CFD Toolbox
   \\    /   O peration     | Website:  https://openfoam.org
    \\  /    A nd           | Version:  9
     \\/     M anipulation  |
\*---------------------------------------------------------------------------*/
FoamFile
{
    format      ascii;
    class       featureEdgeMesh;
    location    "constant/triSurface";
    object      vessel.eMesh;
}
// * * * * * * * * * * * * * * * * * * * * * * * * * * * * * * * * * * * * * //


// points:

238
(
(574.9176 1348.283 1114.9919)
(573.46112 1348.3101 1131.05)
(574.9176 1348.283 1113.769)
(573.46112 1348.3101 1097.71)
(574.91949 148.3096 1114.38)
(573.46112 148.3096 1097.71)
(573.46112 148.3096 1131.05)
(569.13 1348.3101 1147.214)
(569.13 148.3096 1147.214)
(562.05792 1348.3101 1162.38)
(562.05792 148.3096 1162.38)
(552.45978 1348.3101 1176.088)
(552.45978 148.3096 1176.088)
(540.62708 1348.3101 1187.92)
(540.62708 148.3096 1187.92)
(526.91949 1348.3101 1197.519)
(526.91949 148.3096 1197.519)
(511.75339 1348.3101 1204.5909)
(511.75339 148.3096 1204.5909)
(495.58969 1348.3101 1208.922)
(495.58969 148.3096 1208.922)
(478.91949 1348.3101 1210.38)
(478.91949 148.3096 1210.38)
(462.2493 1348.3101 1208.922)
(462.2493 148.3096 1208.922)
(446.0856 1348.3101 1204.5909)
(446.0856 148.3096 1204.5909)
(430.91949 1348.3101 1197.519)
(430.91949 148.3096 1197.519)
(417.21191 1348.3101 1187.92)
(417.21191 148.3096 1187.92)
(405.37921 1348.3101 1176.088)
(405.37921 148.3096 1176.088)
(395.7811 1348.3101 1162.38)
(395.7811 148.3096 1162.38)
(388.70901 1348.3101 1147.214)
(388.70901 148.3096 1147.214)
(384.37799 1348.3101 1131.05)
(384.37799 148.3096 1131.05)
(382.91949 1348.3101 1114.38)
(382.91949 148.3096 1114.38)
(384.37799 1348.3101 1097.71)
(384.37799 148.3096 1097.71)
(388.70901 1348.3101 1081.546)
(388.70901 148.3096 1081.546)
(395.7811 1348.3101 1066.38)
(395.7811 148.3096 1066.38)
(405.37921 1348.3101 1052.672)
(405.37921 148.3096 1052.672)
(417.21191 1348.3101 1040.84)
(417.21191 148.3096 1040.84)
(430.91949 1348.3101 1031.2419)
(430.91949 148.3096 1031.2419)
(446.0856 1348.3101 1024.17)
(446.0856 148.3096 1024.17)
(462.2493 1348.3101 1019.839)
(462.2493 148.3096 1019.839)
(478.91949 1348.3101 1018.38)
(478.91949 148.3096 1018.38)
(495.58969 1348.3101 1019.839)
(495.58969 148.3096 1019.839)
(511.75339 1348.3101 1024.17)
(511.75339 148.3096 1024.17)
(526.91949 1348.3101 1031.2419)
(526.91949 148.3096 1031.2419)
(540.62708 1348.3101 1040.84)
(540.62708 148.3096 1040.84)
(552.45978 1348.3101 1052.672)
(552.45978 148.3096 1052.672)
(562.05792 1348.3101 1066.38)
(562.05792 148.3096 1066.38)
(569.13 1348.3101 1081.546)
(569.13 148.3096 1081.546)
(603.91949 1348.203 1113.165)
(603.91949 1347.887 1111.986)
(603.91949 1347.3719 1110.88)
(603.91949 1346.672 1109.881)
(603.91949 1345.809 1109.0179)
(603.91949 1344.8101 1108.318)
(603.91949 1343.704 1107.802)
(603.91949 1342.525 1107.486)
(603.91949 1341.3101 1107.38)
(603.91949 1340.094 1107.486)
(603.91949 1338.915 1107.802)
(603.91949 1337.8101 1108.318)
(603.91949 1336.8101 1109.0179)
(603.91949 1335.947 1109.881)
(603.91949 1335.2469 1110.88)
(603.91949 1334.7321 1111.986)
(603.91949 1334.416 1113.165)
(603.91949 1334.3101 1114.38)
(603.91949 1334.416 1115.5959)
(603.91949 1334.7321 1116.774)
(603.91949 1335.2469 1117.88)
(603.91949 1335.947 1118.88)
(603.91949 1336.8101 1119.7419)
(603.91949 1337.8101 1120.442)
(603.91949 1338.915 1120.958)
(603.91949 1340.094 1121.274)
(603.91949 1341.3101 1121.38)
(603.91949 1342.525 1121.274)
(603.91949 1343.704 1120.958)
(603.91949 1344.8101 1120.442)
(603.91949 1345.809 1119.7419)
(603.91949 1346.672 1118.88)
(603.91949 1347.3719 1117.88)
(603.91949 1347.887 1116.774)
(603.91949 1348.203 1115.5959)
(603.91949 1348.3101 1114.38)
(485.8132 0.80960971 1113.165)
(485.49741 0.80960971 1111.986)
(484.98169 0.80960971 1110.88)
(484.2818 0.80960971 1109.881)
(483.41901 0.80960971 1109.0179)
(482.41949 0.80960971 1108.318)
(481.31369 0.80960971 1107.802)
(480.13501 0.80960971 1107.486)
(478.91949 0.80960971 1107.38)
(477.70401 0.80960971 1107.486)
(476.52539 0.80960971 1107.802)
(475.41949 0.80960971 1108.318)
(474.42001 0.80960971 1109.0179)
(473.55719 0.80960971 1109.881)
(472.8573 0.80960971 1110.88)
(472.34171 0.80960971 1111.986)
(472.02591 0.80960971 1113.165)
(471.91949 0.80960971 1114.38)
(472.02591 0.80960971 1115.5959)
(472.34171 0.80960971 1116.774)
(472.8573 0.80960971 1117.88)
(473.55719 0.80960971 1118.88)
(474.42001 0.80960971 1119.7419)
(475.41949 0.80960971 1120.442)
(476.52539 0.80960971 1120.958)
(477.70401 0.80960971 1121.274)
(478.91949 0.80960971 1121.38)
(480.13501 0.80960971 1121.274)
(481.31369 0.80960971 1120.958)
(482.41949 0.80960971 1120.442)
(483.41901 0.80960971 1119.7419)
(484.2818 0.80960971 1118.88)
(484.98169 0.80960971 1117.88)
(485.49741 0.80960971 1116.774)
(485.8132 0.80960971 1115.5959)
(485.91949 0.80960971 1114.38)
(574.9118 1334.416 1115.5959)
(574.9024 1334.548 1116.192)
(574.88971 1334.7321 1116.774)
(574.8739 1334.965 1117.338)
(574.85571 1335.2469 1117.88)
(574.81403 1335.947 1118.88)
(574.76959 1336.8101 1119.7419)
(574.72791 1337.8101 1120.442)
(574.70959 1338.3521 1120.725)
(574.69391 1338.915 1120.958)
(574.68109 1339.4969 1121.141)
(574.67169 1340.094 1121.274)
(574.66589 1340.701 1121.354)
(574.664 1341.3101 1121.38)
(574.66589 1341.9189 1121.354)
(574.67169 1342.525 1121.274)
(574.68109 1343.123 1121.141)
(574.69391 1343.704 1120.958)
(574.70959 1344.267 1120.725)
(574.72791 1344.8101 1120.442)
(574.76959 1345.809 1119.7419)
(574.81403 1346.672 1118.88)
(574.85571 1347.3719 1117.88)
(574.8739 1347.653 1117.34)
(574.88971 1347.887 1116.774)
(574.90253 1348.072 1116.1899)
(574.9118 1348.203 1115.5959)
(574.9024 1348.0699 1112.566)
(574.88971 1347.887 1111.986)
(574.9118 1348.203 1113.165)
(574.87402 1347.6541 1111.423)
(574.85571 1347.3719 1110.88)
(574.81403 1346.672 1109.881)
(574.76959 1345.809 1109.0179)
(574.72791 1344.8101 1108.318)
(574.70972 1344.27 1108.037)
(574.69391 1343.704 1107.802)
(574.68109 1343.119 1107.618)
(574.67169 1342.525 1107.486)
(574.66589 1341.922 1107.407)
(574.664 1341.3101 1107.38)
(574.66589 1340.698 1107.407)
(574.67169 1340.094 1107.486)
(574.68109 1339.5 1107.618)
(574.69391 1338.915 1107.802)
(574.70972 1338.35 1108.037)
(574.72791 1337.8101 1108.318)
(574.76959 1336.8101 1109.0179)
(574.81403 1335.947 1109.881)
(574.85571 1335.2469 1110.88)
(574.8739 1334.965 1111.423)
(574.88971 1334.7321 1111.986)
(574.9024 1334.549 1112.567)
(574.9118 1334.416 1113.165)
(574.9176 1334.3361 1113.771)
(574.91949 1334.3101 1114.38)
(574.9176 1334.3361 1114.989)
(472.02731 25.809601 1115.595)
(472.34299 25.809601 1116.774)
(472.85861 25.809601 1117.879)
(473.55829 25.809601 1118.879)
(474.4209 25.809601 1119.741)
(475.4202 25.809601 1120.441)
(476.52591 25.809601 1120.957)
(477.70419 25.809601 1121.272)
(478.91949 25.809601 1121.379)
(480.1348 25.809601 1121.272)
(481.3132 25.809601 1120.957)
(482.41879 25.809601 1120.441)
(483.41809 25.809601 1119.741)
(484.2807 25.809601 1118.879)
(484.98041 25.809601 1117.879)
(485.496 25.809601 1116.774)
(485.81171 25.809601 1115.595)
(485.91809 25.809601 1114.38)
(485.81171 25.809601 1113.165)
(485.496 25.809601 1111.986)
(484.98041 25.809601 1110.881)
(484.2807 25.809601 1109.882)
(483.41809 25.809601 1109.019)
(482.41879 25.809601 1108.319)
(481.3132 25.809601 1107.804)
(480.1348 25.809601 1107.488)
(478.91949 25.809601 1107.382)
(477.70419 25.809601 1107.488)
(476.52591 25.809601 1107.804)
(475.4202 25.809601 1108.319)
(474.4209 25.809601 1109.019)
(473.55829 25.809601 1109.882)
(472.85861 25.809601 1110.881)
(472.34299 25.809601 1111.986)
(472.02731 25.809601 1113.165)
(471.92099 25.809601 1114.38)
)


// edges:

238
(
(0 1)
(2 3)
(4 5)
(6 4)
(1 7)
(8 6)
(7 9)
(10 8)
(9 11)
(12 10)
(11 13)
(14 12)
(13 15)
(16 14)
(15 17)
(18 16)
(17 19)
(20 18)
(19 21)
(22 20)
(21 23)
(24 22)
(23 25)
(26 24)
(25 27)
(28 26)
(27 29)
(30 28)
(29 31)
(32 30)
(31 33)
(34 32)
(33 35)
(36 34)
(35 37)
(38 36)
(37 39)
(40 38)
(39 41)
(42 40)
(41 43)
(44 42)
(43 45)
(46 44)
(45 47)
(48 46)
(47 49)
(50 48)
(49 51)
(52 50)
(51 53)
(54 52)
(53 55)
(56 54)
(55 57)
(58 56)
(57 59)
(60 58)
(59 61)
(62 60)
(61 63)
(64 62)
(63 65)
(66 64)
(65 67)
(68 66)
(67 69)
(70 68)
(69 71)
(72 70)
(71 3)
(5 72)
(73 74)
(74 75)
(75 76)
(76 77)
(77 78)
(78 79)
(79 80)
(80 81)
(81 82)
(82 83)
(83 84)
(84 85)
(85 86)
(86 87)
(88 89)
(87 88)
(89 90)
(90 91)
(91 92)
(92 93)
(93 94)
(94 95)
(95 96)
(96 97)
(97 98)
(98 99)
(99 100)
(100 101)
(101 102)
(102 103)
(103 104)
(104 105)
(106 107)
(105 106)
(108 73)
(107 108)
(109 110)
(110 111)
(111 112)
(112 113)
(113 114)
(114 115)
(115 116)
(116 117)
(117 118)
(118 119)
(119 120)
(120 121)
(121 122)
(122 123)
(123 124)
(124 125)
(125 126)
(126 127)
(127 128)
(128 129)
(129 130)
(130 131)
(131 132)
(132 133)
(133 134)
(134 135)
(135 136)
(136 137)
(137 138)
(138 139)
(139 140)
(140 141)
(141 142)
(142 143)
(143 144)
(144 109)
(145 146)
(146 147)
(147 148)
(148 149)
(149 150)
(150 151)
(151 152)
(152 153)
(153 154)
(154 155)
(155 156)
(156 157)
(157 158)
(158 159)
(159 160)
(160 161)
(161 162)
(162 163)
(163 164)
(164 165)
(165 166)
(166 167)
(167 168)
(168 169)
(169 170)
(170 171)
(171 0)
(172 173)
(2 174)
(174 172)
(173 175)
(175 176)
(176 177)
(177 178)
(178 179)
(179 180)
(180 181)
(181 182)
(182 183)
(183 184)
(184 185)
(185 186)
(186 187)
(187 188)
(188 189)
(190 191)
(191 192)
(192 193)
(193 194)
(194 195)
(195 196)
(196 197)
(197 198)
(198 199)
(199 200)
(200 201)
(201 145)
(189 190)
(202 203)
(203 204)
(204 205)
(205 206)
(206 207)
(207 208)
(208 209)
(209 210)
(210 211)
(211 212)
(212 213)
(213 214)
(214 215)
(215 216)
(216 217)
(217 218)
(218 219)
(219 220)
(220 221)
(221 222)
(222 223)
(223 224)
(224 225)
(225 226)
(226 227)
(227 228)
(228 229)
(229 230)
(230 231)
(231 232)
(232 233)
(233 234)
(234 235)
(235 236)
(236 237)
(237 202)
)

// * * * * * * * * * * * * * * * * * * * * * * * * * * * * * * * * * * * * * //


// ************************************************************************* //
