/*--------------------------------*- C++ -*----------------------------------*\
  =========                 |
  \\      /  F ield         | OpenFOAM: The Open Source CFD Toolbox
   \\    /   O peration     | Website:  https://openfoam.org
    \\  /    A nd           | Version:  9
     \\/     M anipulation  |
\*---------------------------------------------------------------------------*/
FoamFile
{
    format      ascii;
    class       featureEdgeMesh;
    location    "constant/triSurface";
    object      inlet.eMesh;
}
// * * * * * * * * * * * * * * * * * * * * * * * * * * * * * * * * * * * * * //


// points:

1060
(
(313.10831 3.1479161 564.73059)
(312.60181 3.1479161 564.72968)
(313.10831 5.6479158 564.73059)
(313.61209 5.6479158 564.78271)
(313.61209 3.1479161 564.78271)
(314.108 5.6479158 564.8855)
(314.108 3.1479161 564.8855)
(314.591 5.6479158 565.03802)
(314.591 3.1479161 565.03802)
(315.05609 5.6479158 565.23853)
(315.05609 3.1479161 565.23853)
(315.4986 5.6479158 565.48511)
(315.4986 3.1479161 565.48511)
(315.91379 5.6479158 565.77521)
(315.91379 3.1479161 565.77521)
(316.29749 5.6479158 566.10571)
(316.29749 3.1479161 566.10571)
(316.64581 5.6479158 566.47339)
(316.64581 3.1479161 566.47339)
(316.9552 5.6479158 566.87451)
(316.9552 3.1479161 566.87451)
(317.22229 5.6479158 567.30481)
(317.22229 3.1479161 567.30481)
(317.44461 5.6479158 567.75989)
(317.44461 3.1479161 567.75989)
(317.61969 5.6479158 568.23523)
(317.61969 3.1479161 568.23523)
(317.74579 5.6479158 568.72571)
(317.74579 3.1479161 568.72571)
(317.82159 5.6479158 569.2265)
(317.82159 3.1479161 569.2265)
(317.84641 5.6479158 569.73242)
(317.84641 3.1479161 569.73242)
(317.81979 5.6479158 570.23822)
(317.81979 3.1479161 570.23822)
(317.74231 5.6479158 570.73871)
(317.74231 3.1479161 570.73871)
(317.6145 5.6479158 571.22882)
(317.6145 3.1479161 571.22882)
(317.43771 5.6479158 571.70349)
(317.43771 3.1479161 571.70349)
(317.2139 5.6479158 572.15778)
(317.2139 3.1479161 572.15778)
(316.94519 5.6479158 572.58722)
(316.94519 3.1479161 572.58722)
(316.63449 5.6479158 572.98718)
(316.63449 3.1479161 572.98718)
(316.28491 5.6479158 573.3537)
(316.28491 3.1479161 573.3537)
(315.90009 5.6479158 573.68292)
(315.90009 3.1479161 573.68292)
(315.4838 5.6479158 573.9715)
(315.4838 3.1479161 573.9715)
(315.04059 5.6479158 574.21661)
(315.04059 3.1479161 574.21661)
(314.5748 5.6479158 574.41553)
(314.5748 3.1479161 574.41553)
(314.09131 5.6479158 574.56628)
(314.09131 3.1479161 574.56628)
(313.595 5.6479158 574.66742)
(313.595 3.1479161 574.66742)
(313.091 5.6479158 574.71771)
(313.091 3.1479161 574.71771)
(312.5845 5.6479158 574.71692)
(312.5845 3.1479161 574.71692)
(312.08069 5.6479158 574.66467)
(312.08069 3.1479161 574.66467)
(311.58469 5.6479158 574.56189)
(311.58469 3.1479161 574.56189)
(311.10172 5.6479158 574.40948)
(311.10172 3.1479161 574.40948)
(310.6366 5.6479158 574.20892)
(310.6366 3.1479161 574.20892)
(310.19421 5.6479158 573.96228)
(310.19421 3.1479161 573.96228)
(309.77899 5.6479158 573.6723)
(309.77899 3.1479161 573.6723)
(309.39529 5.6479158 573.34167)
(309.39529 3.1479161 573.34167)
(309.047 5.6479158 572.974)
(309.047 3.1479161 572.974)
(308.73761 5.6479158 572.57288)
(308.73761 3.1479161 572.57288)
(308.47049 5.6479158 572.14258)
(308.47049 3.1479161 572.14258)
(308.2482 5.6479158 571.6875)
(308.2482 3.1479161 571.6875)
(308.07309 5.6479158 571.21228)
(308.07309 3.1479161 571.21228)
(307.94699 5.6479158 570.72168)
(307.94699 3.1479161 570.72168)
(307.87119 5.6479158 570.22089)
(307.87119 3.1479161 570.22089)
(307.84641 5.6479158 569.71503)
(307.84641 3.1479161 569.71503)
(307.87289 5.6479158 569.20929)
(307.87289 3.1479161 569.20929)
(307.9505 5.6479158 568.70868)
(307.9505 3.1479161 568.70868)
(308.07831 5.6479158 568.21863)
(308.07831 3.1479161 568.21863)
(308.255 5.6479158 567.74402)
(308.255 3.1479161 567.74402)
(308.47891 5.6479158 567.28961)
(308.47891 3.1479161 567.28961)
(308.7475 5.6479158 566.86029)
(308.7475 3.1479161 566.86029)
(309.05829 5.6479158 566.46033)
(309.05829 3.1479161 566.46033)
(309.40781 5.6479158 566.09381)
(309.40781 3.1479161 566.09381)
(309.79269 5.6479158 565.76453)
(309.79269 3.1479161 565.76453)
(310.20889 5.6479158 565.47589)
(310.20889 3.1479161 565.47589)
(310.65219 5.6479158 565.2309)
(310.65219 3.1479161 565.2309)
(311.11801 5.6479158 565.03198)
(311.11801 3.1479161 565.03198)
(311.6015 5.6479158 564.88123)
(311.6015 3.1479161 564.88123)
(312.09781 5.6479158 564.78009)
(312.09781 3.1479161 564.78009)
(312.60181 5.6479158 564.72968)
(312.80399 5.6479158 567.96991)
(312.7608 5.6479158 567.97583)
(313.05429 5.6479158 573.96863)
(313.01071 5.6479158 573.96698)
(313.07339 5.6479158 573.47089)
(313.116 5.6479158 573.4801)
(313.24121 5.6479158 573.87012)
(313.21191 5.6479158 573.9024)
(312.96811 5.6479158 573.95782)
(312.9278 5.6479158 573.94128)
(312.8909 5.6479158 573.91809)
(312.85861 5.6479158 573.88879)
(312.83191 5.6479158 573.85437)
(312.81161 5.6479158 573.8158)
(312.80319 5.6479158 573.64502)
(312.8197 5.6479158 573.60468)
(312.8429 5.6479158 573.56781)
(312.87219 5.6479158 573.53552)
(312.90659 5.6479158 573.50879)
(312.79831 5.6479158 573.77429)
(312.79239 5.6479158 573.7312)
(312.79401 5.6479158 573.68762)
(312.94519 5.6479158 573.48853)
(312.98669 5.6479158 573.4751)
(313.02979 5.6479158 573.46918)
(313.15631 5.6479158 573.49658)
(313.19321 5.6479158 573.51978)
(313.22549 5.6479158 573.54907)
(313.29181 5.6479158 573.70673)
(313.2901 5.6479158 573.75018)
(313.17749 5.6479158 573.92908)
(313.13889 5.6479158 573.9494)
(313.0975 5.6479158 573.96271)
(313.2522 5.6479158 573.5835)
(313.27249 5.6479158 573.62201)
(313.2858 5.6479158 573.66351)
(313.28091 5.6479158 573.79279)
(313.2644 5.6479158 573.83319)
(317.0896 5.6479158 569.55939)
(317.08041 5.6479158 569.60199)
(316.60281 5.6479158 569.4541)
(316.6192 5.6479158 569.41382)
(317.08539 5.6479158 569.4726)
(317.09131 5.6479158 569.51581)
(317.064 5.6479158 569.64227)
(317.04071 5.6479158 569.6792)
(317.01151 5.6479158 569.71149)
(316.97699 5.6479158 569.73822)
(316.93851 5.6479158 569.75848)
(316.897 5.6479158 569.77179)
(316.8103 5.6479158 569.77612)
(316.7677 5.6479158 569.76691)
(317.0517 5.6479158 569.39258)
(317.07211 5.6479158 569.43121)
(316.6582 5.6479158 569.69788)
(316.6315 5.6479158 569.66351)
(316.61111 5.6479158 569.62488)
(316.59781 5.6479158 569.5835)
(316.59189 5.6479158 569.54028)
(316.5936 5.6479158 569.4967)
(316.64249 5.6479158 569.37689)
(316.67169 5.6479158 569.3446)
(316.70621 5.6479158 569.31787)
(316.85379 5.6479158 569.77777)
(316.72729 5.6479158 569.75043)
(316.69049 5.6479158 569.72717)
(316.99271 5.6479158 569.32892)
(317.02499 5.6479158 569.35822)
(316.87289 5.6479158 569.28003)
(316.9155 5.6479158 569.28918)
(316.9559 5.6479158 569.30573)
(316.74469 5.6479158 569.29761)
(316.78619 5.6479158 569.2843)
(316.82941 5.6479158 569.27838)
(314.71951 5.6479158 571.50922)
(314.74271 5.6479158 571.47241)
(314.772 5.6479158 571.44012)
(314.8064 5.6479158 571.41339)
(314.84491 5.6479158 571.39301)
(314.88641 5.6479158 571.3797)
(314.9296 5.6479158 571.37378)
(315.0387 5.6479158 571.854)
(314.99719 5.6479158 571.86731)
(314.9541 5.6479158 571.87323)
(314.91049 5.6479158 571.87152)
(314.86789 5.6479158 571.8623)
(314.82761 5.6479158 571.84589)
(314.79071 5.6479158 571.82257)
(314.75839 5.6479158 571.7934)
(314.97311 5.6479158 571.37549)
(315.01569 5.6479158 571.3847)
(315.05609 5.6479158 571.40112)
(315.09299 5.6479158 571.42432)
(315.12521 5.6479158 571.45361)
(315.15201 5.6479158 571.4881)
(315.1723 5.6479158 571.52661)
(315.18561 5.6479158 571.56812)
(315.1915 5.6479158 571.61133)
(315.18991 5.6479158 571.65479)
(315.18069 5.6479158 571.69739)
(315.16422 5.6479158 571.73779)
(315.14099 5.6479158 571.7746)
(315.11169 5.6479158 571.80688)
(315.0773 5.6479158 571.83362)
(314.73169 5.6479158 571.75891)
(314.7114 5.6479158 571.7204)
(314.698 5.6479158 571.67889)
(314.69211 5.6479158 571.63568)
(314.69379 5.6479158 571.59222)
(314.703 5.6479158 571.54962)
(315.09201 5.6479158 569.65723)
(315.08279 5.6479158 569.69983)
(314.72971 5.6479158 569.84821)
(314.6929 5.6479158 569.82501)
(315.06641 5.6479158 569.74011)
(315.04309 5.6479158 569.77698)
(315.01389 5.6479158 569.80933)
(314.60519 5.6479158 569.552)
(314.62161 5.6479158 569.5116)
(314.6449 5.6479158 569.47479)
(314.6741 5.6479158 569.4425)
(314.70859 5.6479158 569.41577)
(314.87531 5.6479158 569.37793)
(314.91791 5.6479158 569.38708)
(314.95831 5.6479158 569.4035)
(314.99509 5.6479158 569.4267)
(315.0274 5.6479158 569.45599)
(315.05411 5.6479158 569.49042)
(315.07449 5.6479158 569.52899)
(315.0878 5.6479158 569.5705)
(315.09369 5.6479158 569.61371)
(314.7471 5.6479158 569.39539)
(314.7886 5.6479158 569.38208)
(314.83179 5.6479158 569.37622)
(314.89941 5.6479158 569.86969)
(314.8562 5.6479158 569.87561)
(314.81271 5.6479158 569.8739)
(314.77011 5.6479158 569.86469)
(314.66061 5.6479158 569.79578)
(314.63391 5.6479158 569.76129)
(314.61349 5.6479158 569.72278)
(314.60019 5.6479158 569.68127)
(314.5943 5.6479158 569.63812)
(314.59601 5.6479158 569.5946)
(314.9794 5.6479158 569.836)
(314.94089 5.6479158 569.85632)
(314.7775 5.6479158 567.38031)
(314.8201 5.6479158 567.38953)
(314.86041 5.6479158 567.40588)
(314.89731 5.6479158 567.42908)
(314.9296 5.6479158 567.45837)
(314.9563 5.6479158 567.4928)
(314.9942 5.6479158 567.65961)
(314.98499 5.6479158 567.70221)
(314.96851 5.6479158 567.74249)
(314.94531 5.6479158 567.77942)
(314.91599 5.6479158 567.81171)
(314.88159 5.6479158 567.83838)
(314.84311 5.6479158 567.8587)
(314.67221 5.6479158 567.86713)
(314.6319 5.6479158 567.85059)
(314.49811 5.6479158 567.59698)
(314.50729 5.6479158 567.55438)
(314.5238 5.6479158 567.51398)
(314.61069 5.6479158 567.41809)
(314.64929 5.6479158 567.39783)
(314.6908 5.6479158 567.38452)
(314.73389 5.6479158 567.3786)
(314.97659 5.6479158 567.53137)
(314.9899 5.6479158 567.57288)
(314.99591 5.6479158 567.61609)
(314.80161 5.6479158 567.87207)
(314.75839 5.6479158 567.87799)
(314.71481 5.6479158 567.87628)
(314.547 5.6479158 567.47711)
(314.57629 5.6479158 567.44489)
(314.595 5.6479158 567.82739)
(314.56271 5.6479158 567.79822)
(314.53601 5.6479158 567.76367)
(314.51569 5.6479158 567.72522)
(314.50241 5.6479158 567.68372)
(314.49649 5.6479158 567.6405)
(312.95651 5.6479158 571.97101)
(312.9129 5.6479158 571.96942)
(312.8703 5.6479158 571.96021)
(312.82999 5.6479158 571.94373)
(312.79309 5.6479158 571.92047)
(312.97549 5.6479158 571.47333)
(313.0181 5.6479158 571.48248)
(313.0585 5.6479158 571.49902)
(313.0954 5.6479158 571.52222)
(312.93201 5.6479158 571.47162)
(312.88879 5.6479158 571.47748)
(312.9996 5.6479158 571.96509)
(312.70541 5.6479158 571.6474)
(312.72189 5.6479158 571.60712)
(312.74509 5.6479158 571.57019)
(312.77429 5.6479158 571.5379)
(312.80881 5.6479158 571.51123)
(312.84729 5.6479158 571.49091)
(313.12759 5.6479158 571.55151)
(313.15439 5.6479158 571.58588)
(313.17471 5.6479158 571.62439)
(313.18799 5.6479158 571.66589)
(312.7608 5.6479158 571.89117)
(312.7341 5.6479158 571.85681)
(312.71381 5.6479158 571.81818)
(313.19391 5.6479158 571.70911)
(313.19229 5.6479158 571.75262)
(313.18301 5.6479158 571.79523)
(313.1666 5.6479158 571.83557)
(313.1434 5.6479158 571.8725)
(313.11411 5.6479158 571.90472)
(313.07971 5.6479158 571.93152)
(313.04111 5.6479158 571.95178)
(312.70041 5.6479158 571.77667)
(312.69449 5.6479158 571.73358)
(312.6962 5.6479158 571.69)
(312.98181 5.6479158 569.9339)
(312.9433 5.6479158 569.95422)
(312.6076 5.6479158 569.64978)
(312.62399 5.6479158 569.6095)
(312.64719 5.6479158 569.57257)
(312.67651 5.6479158 569.54028)
(312.85861 5.6479158 569.97339)
(312.81509 5.6479158 569.9718)
(312.90179 5.6479158 569.96753)
(312.77249 5.6479158 569.96252)
(312.73209 5.6479158 569.94611)
(312.69531 5.6479158 569.92291)
(312.66299 5.6479158 569.89362)
(312.63629 5.6479158 569.85919)
(312.61591 5.6479158 569.82062)
(312.6026 5.6479158 569.77911)
(312.59671 5.6479158 569.7359)
(312.59839 5.6479158 569.69238)
(312.71091 5.6479158 569.51361)
(312.74951 5.6479158 569.49329)
(312.79099 5.6479158 569.47992)
(312.8342 5.6479158 569.474)
(312.87769 5.6479158 569.47571)
(312.92029 5.6479158 569.48492)
(312.9606 5.6479158 569.5014)
(313.09021 5.6479158 569.66827)
(313.0961 5.6479158 569.71149)
(313.07681 5.6479158 569.62677)
(313.05649 5.6479158 569.58832)
(313.09439 5.6479158 569.755)
(313.08521 5.6479158 569.79761)
(313.0687 5.6479158 569.83801)
(312.9975 5.6479158 569.5246)
(313.02979 5.6479158 569.55377)
(313.0455 5.6479158 569.87488)
(313.0163 5.6479158 569.9071)
(312.7363 5.6479158 567.47638)
(312.77991 5.6479158 567.47809)
(312.52621 5.6479158 567.61188)
(312.54941 5.6479158 567.57501)
(312.5787 5.6479158 567.54272)
(312.6131 5.6479158 567.51599)
(312.82251 5.6479158 567.4873)
(312.86279 5.6479158 567.50378)
(312.89969 5.6479158 567.52698)
(312.71719 5.6479158 567.97412)
(312.93201 5.6479158 567.55621)
(312.95871 5.6479158 567.5907)
(312.979 5.6479158 567.62921)
(312.9874 5.6479158 567.79999)
(312.97089 5.6479158 567.84039)
(312.94769 5.6479158 567.87732)
(312.9184 5.6479158 567.90948)
(312.67459 5.6479158 567.9649)
(312.63431 5.6479158 567.94849)
(312.59741 5.6479158 567.92529)
(312.6517 5.6479158 567.49573)
(312.69312 5.6479158 567.4823)
(312.99231 5.6479158 567.67072)
(312.99829 5.6479158 567.71393)
(312.99661 5.6479158 567.75739)
(312.884 5.6479158 567.93622)
(312.8454 5.6479158 567.9566)
(312.56509 5.6479158 567.896)
(312.53839 5.6479158 567.86157)
(312.5181 5.6479158 567.823)
(312.50479 5.6479158 567.78149)
(312.4989 5.6479158 567.73828)
(312.50049 5.6479158 567.69482)
(312.5097 5.6479158 567.65222)
(312.6629 5.6479158 565.97821)
(312.61938 5.6479158 565.9765)
(312.82059 5.6479158 565.91193)
(312.78619 5.6479158 565.9386)
(312.57681 5.6479158 565.96729)
(312.5365 5.6479158 565.95093)
(312.4996 5.6479158 565.92767)
(312.51529 5.6479158 565.51837)
(312.5538 5.6479158 565.49811)
(312.72461 5.6479158 565.48969)
(312.76501 5.6479158 565.5061)
(312.80191 5.6479158 565.52942)
(312.74759 5.6479158 565.95898)
(312.70609 5.6479158 565.97229)
(312.42029 5.6479158 565.82538)
(312.40689 5.6479158 565.78387)
(312.59531 5.6479158 565.48468)
(312.63849 5.6479158 565.47882)
(312.68201 5.6479158 565.48053)
(312.40271 5.6479158 565.6972)
(312.4119 5.6479158 565.6546)
(312.42841 5.6479158 565.6142)
(312.83411 5.6479158 565.55859)
(312.8609 5.6479158 565.59308)
(312.8812 5.6479158 565.63159)
(312.401 5.6479158 565.74072)
(312.4516 5.6479158 565.57739)
(312.4808 5.6479158 565.5451)
(312.8895 5.6479158 565.80243)
(312.87311 5.6479158 565.84277)
(312.84991 5.6479158 565.87958)
(312.46729 5.6479158 565.89838)
(312.44061 5.6479158 565.86401)
(312.8945 5.6479158 565.6731)
(312.90039 5.6479158 565.71631)
(312.8988 5.6479158 565.75983)
(311.04349 5.6479158 572.04962)
(311.00201 5.6479158 572.06293)
(310.9588 5.6479158 572.06891)
(310.91531 5.6479158 572.0672)
(310.87271 5.6479158 572.05798)
(310.8324 5.6479158 572.0415)
(310.69861 5.6479158 571.78778)
(310.70779 5.6479158 571.74518)
(310.7243 5.6479158 571.7049)
(310.7475 5.6479158 571.66803)
(311.18539 5.6479158 571.89313)
(311.16901 5.6479158 571.93341)
(311.14581 5.6479158 571.97028)
(310.7955 5.6479158 572.01831)
(310.76321 5.6479158 571.98901)
(310.73651 5.6479158 571.95459)
(311.11649 5.6479158 572.00262)
(311.08209 5.6479158 572.0293)
(310.71619 5.6479158 571.91608)
(310.70279 5.6479158 571.87457)
(310.6969 5.6479158 571.83142)
(311.06091 5.6479158 571.5968)
(311.09781 5.6479158 571.62)
(311.02051 5.6479158 571.58032)
(310.7767 5.6479158 571.63568)
(310.81119 5.6479158 571.60901)
(310.8497 5.6479158 571.58868)
(310.8912 5.6479158 571.57538)
(310.93439 5.6479158 571.56952)
(310.97791 5.6479158 571.57111)
(311.13 5.6479158 571.64929)
(311.15671 5.6479158 571.68372)
(311.17709 5.6479158 571.72229)
(311.1904 5.6479158 571.76379)
(311.19629 5.6479158 571.80688)
(311.19461 5.6479158 571.85052)
(310.60999 5.6479158 569.74762)
(310.6264 5.6479158 569.70728)
(310.7345 5.6479158 570.04388)
(310.6976 5.6479158 570.02069)
(310.86099 5.6479158 570.07129)
(310.8175 5.6479158 570.06958)
(310.7749 5.6479158 570.06042)
(310.66541 5.6479158 569.99139)
(310.63861 5.6479158 569.95697)
(310.61829 5.6479158 569.9184)
(310.60501 5.6479158 569.87701)
(310.59909 5.6479158 569.8338)
(310.6008 5.6479158 569.79022)
(310.8801 5.6479158 569.57349)
(310.9227 5.6479158 569.5827)
(310.96301 5.6479158 569.59918)
(310.6496 5.6479158 569.67041)
(310.67889 5.6479158 569.63812)
(310.71329 5.6479158 569.61139)
(310.99991 5.6479158 569.62238)
(311.0322 5.6479158 569.65167)
(311.0589 5.6479158 569.6861)
(310.90421 5.6479158 570.06531)
(310.94571 5.6479158 570.052)
(310.75189 5.6479158 569.59113)
(310.7934 5.6479158 569.57782)
(310.83661 5.6479158 569.5719)
(311.07919 5.6479158 569.72467)
(311.09259 5.6479158 569.76617)
(311.09851 5.6479158 569.80933)
(311.0968 5.6479158 569.85291)
(311.08759 5.6479158 569.89551)
(311.07111 5.6479158 569.93579)
(311.04791 5.6479158 569.97272)
(311.01871 5.6479158 570.005)
(310.98419 5.6479158 570.03168)
(310.82489 5.6479158 567.58508)
(310.8652 5.6479158 567.60162)
(310.9021 5.6479158 567.62482)
(310.93439 5.6479158 567.65411)
(310.88641 5.6479158 568.03412)
(310.84781 5.6479158 568.05438)
(310.677 5.6479158 568.06281)
(310.63669 5.6479158 568.04633)
(310.96109 5.6479158 567.68848)
(310.98141 5.6479158 567.72711)
(310.99469 5.6479158 567.76849)
(311.00061 5.6479158 567.81171)
(310.8064 5.6479158 568.06769)
(310.76321 5.6479158 568.07361)
(310.7196 5.6479158 568.07202)
(310.5029 5.6479158 567.7926)
(310.51208 5.6479158 567.75)
(310.52859 5.6479158 567.70972)
(310.55179 5.6479158 567.67279)
(310.58109 5.6479158 567.6405)
(310.61551 5.6479158 567.61377)
(310.65411 5.6479158 567.59351)
(310.99899 5.6479158 567.85529)
(310.98981 5.6479158 567.89789)
(310.9733 5.6479158 567.93817)
(310.59979 5.6479158 568.02307)
(310.5675 5.6479158 567.99377)
(310.5408 5.6479158 567.95941)
(310.52051 5.6479158 567.92078)
(310.5072 5.6479158 567.87939)
(310.50119 5.6479158 567.83618)
(310.6955 5.6479158 567.5802)
(310.73871 5.6479158 567.57422)
(310.78229 5.6479158 567.57593)
(310.9501 5.6479158 567.9751)
(310.92081 5.6479158 568.00739)
(309.03461 5.6479158 569.74951)
(309.06131 5.6479158 569.78387)
(308.6124 5.6479158 569.84552)
(308.62881 5.6479158 569.80511)
(308.65201 5.6479158 569.76831)
(308.81989 5.6479158 570.16742)
(308.77731 5.6479158 570.1582)
(308.73691 5.6479158 570.14172)
(308.64099 5.6479158 570.05481)
(308.6207 5.6479158 570.0163)
(309.09921 5.6479158 569.95068)
(309.09 5.6479158 569.99329)
(309.07349 5.6479158 570.03363)
(308.70001 5.6479158 570.11853)
(308.66779 5.6479158 570.08929)
(308.60739 5.6479158 569.97479)
(308.6015 5.6479158 569.93158)
(308.60309 5.6479158 569.88812)
(308.6813 5.6479158 569.73602)
(308.7157 5.6479158 569.70929)
(308.7543 5.6479158 569.6889)
(309.0816 5.6479158 569.82251)
(309.095 5.6479158 569.86401)
(309.10089 5.6479158 569.90723)
(309.05029 5.6479158 570.0705)
(309.021 5.6479158 570.10278)
(308.9866 5.6479158 570.12952)
(308.94809 5.6479158 570.14978)
(308.90659 5.6479158 570.16321)
(308.8634 5.6479158 570.16913)
(308.79581 5.6479158 569.6756)
(308.8389 5.6479158 569.66968)
(308.88251 5.6479158 569.67139)
(308.92511 5.6479158 569.6806)
(308.96539 5.6479158 569.69702)
(309.00229 5.6479158 569.72021)
(312.90179 4.6479158 569.96753)
(312.85861 4.6479158 569.97339)
(312.9433 4.6479158 569.95422)
(312.98181 4.6479158 569.9339)
(313.0163 4.6479158 569.9071)
(313.0455 4.6479158 569.87488)
(313.0687 4.6479158 569.83801)
(313.08521 4.6479158 569.79761)
(313.09439 4.6479158 569.755)
(313.0961 4.6479158 569.71149)
(313.09021 4.6479158 569.66827)
(313.07681 4.6479158 569.62677)
(313.05649 4.6479158 569.58832)
(313.02979 4.6479158 569.55377)
(312.9975 4.6479158 569.5246)
(312.9606 4.6479158 569.5014)
(312.92029 4.6479158 569.48492)
(312.87769 4.6479158 569.47571)
(312.8342 4.6479158 569.474)
(312.79099 4.6479158 569.47992)
(312.74951 4.6479158 569.49329)
(312.71091 4.6479158 569.51361)
(312.67651 4.6479158 569.54028)
(312.64719 4.6479158 569.57257)
(312.62399 4.6479158 569.6095)
(312.6076 4.6479158 569.64978)
(312.59839 4.6479158 569.69238)
(312.59671 4.6479158 569.7359)
(312.6026 4.6479158 569.77911)
(312.61591 4.6479158 569.82062)
(312.63629 4.6479158 569.85919)
(312.66299 4.6479158 569.89362)
(312.69531 4.6479158 569.92291)
(312.73209 4.6479158 569.94611)
(312.77249 4.6479158 569.96252)
(312.81509 4.6479158 569.9718)
(313.0975 4.6479158 573.96271)
(313.05429 4.6479158 573.96863)
(313.13889 4.6479158 573.9494)
(313.17749 4.6479158 573.92908)
(313.21191 4.6479158 573.9024)
(313.24121 4.6479158 573.87012)
(313.2644 4.6479158 573.83319)
(313.28091 4.6479158 573.79279)
(313.2901 4.6479158 573.75018)
(313.29181 4.6479158 573.70673)
(313.2858 4.6479158 573.66351)
(313.27249 4.6479158 573.62201)
(313.2522 4.6479158 573.5835)
(313.22549 4.6479158 573.54907)
(313.19321 4.6479158 573.51978)
(313.15631 4.6479158 573.49658)
(313.116 4.6479158 573.4801)
(313.07339 4.6479158 573.47089)
(313.02979 4.6479158 573.46918)
(312.98669 4.6479158 573.4751)
(312.94519 4.6479158 573.48853)
(312.90659 4.6479158 573.50879)
(312.87219 4.6479158 573.53552)
(312.8429 4.6479158 573.56781)
(312.8197 4.6479158 573.60468)
(312.80319 4.6479158 573.64502)
(312.79401 4.6479158 573.68762)
(312.79239 4.6479158 573.7312)
(312.79831 4.6479158 573.77429)
(312.81161 4.6479158 573.8158)
(312.83191 4.6479158 573.85437)
(312.85861 4.6479158 573.88879)
(312.8909 4.6479158 573.91809)
(312.9278 4.6479158 573.94128)
(312.96811 4.6479158 573.95782)
(313.01071 4.6479158 573.96698)
(312.70609 4.6479158 565.97229)
(312.6629 4.6479158 565.97821)
(312.74759 4.6479158 565.95898)
(312.78619 4.6479158 565.9386)
(312.82059 4.6479158 565.91193)
(312.84991 4.6479158 565.87958)
(312.87311 4.6479158 565.84277)
(312.8895 4.6479158 565.80243)
(312.8988 4.6479158 565.75983)
(312.90039 4.6479158 565.71631)
(312.8945 4.6479158 565.6731)
(312.8812 4.6479158 565.63159)
(312.8609 4.6479158 565.59308)
(312.83411 4.6479158 565.55859)
(312.80191 4.6479158 565.52942)
(312.76501 4.6479158 565.5061)
(312.72461 4.6479158 565.48969)
(312.68201 4.6479158 565.48053)
(312.63849 4.6479158 565.47882)
(312.59531 4.6479158 565.48468)
(312.5538 4.6479158 565.49811)
(312.51529 4.6479158 565.51837)
(312.4808 4.6479158 565.5451)
(312.4516 4.6479158 565.57739)
(312.42841 4.6479158 565.6142)
(312.4119 4.6479158 565.6546)
(312.40271 4.6479158 565.6972)
(312.401 4.6479158 565.74072)
(312.40689 4.6479158 565.78387)
(312.42029 4.6479158 565.82538)
(312.44061 4.6479158 565.86401)
(312.46729 4.6479158 565.89838)
(312.4996 4.6479158 565.92767)
(312.5365 4.6479158 565.95093)
(312.57681 4.6479158 565.96729)
(312.61938 4.6479158 565.9765)
(308.90659 4.6479158 570.16321)
(308.8634 4.6479158 570.16913)
(308.94809 4.6479158 570.14978)
(308.9866 4.6479158 570.12952)
(309.021 4.6479158 570.10278)
(309.05029 4.6479158 570.0705)
(309.07349 4.6479158 570.03363)
(309.09 4.6479158 569.99329)
(309.09921 4.6479158 569.95068)
(309.10089 4.6479158 569.90723)
(309.095 4.6479158 569.86401)
(309.0816 4.6479158 569.82251)
(309.06131 4.6479158 569.78387)
(309.03461 4.6479158 569.74951)
(309.00229 4.6479158 569.72021)
(308.96539 4.6479158 569.69702)
(308.92511 4.6479158 569.6806)
(308.88251 4.6479158 569.67139)
(308.8389 4.6479158 569.66968)
(308.79581 4.6479158 569.6756)
(308.7543 4.6479158 569.6889)
(308.7157 4.6479158 569.70929)
(308.6813 4.6479158 569.73602)
(308.65201 4.6479158 569.76831)
(308.62881 4.6479158 569.80511)
(308.6124 4.6479158 569.84552)
(308.60309 4.6479158 569.88812)
(308.6015 4.6479158 569.93158)
(308.60739 4.6479158 569.97479)
(308.6207 4.6479158 570.0163)
(308.64099 4.6479158 570.05481)
(308.66779 4.6479158 570.08929)
(308.70001 4.6479158 570.11853)
(308.73691 4.6479158 570.14172)
(308.77731 4.6479158 570.1582)
(308.81989 4.6479158 570.16742)
(316.897 4.6479158 569.77179)
(316.85379 4.6479158 569.77777)
(316.93851 4.6479158 569.75848)
(316.97699 4.6479158 569.73822)
(317.01151 4.6479158 569.71149)
(317.04071 4.6479158 569.6792)
(317.064 4.6479158 569.64227)
(317.08041 4.6479158 569.60199)
(317.0896 4.6479158 569.55939)
(317.09131 4.6479158 569.51581)
(317.08539 4.6479158 569.4726)
(317.07211 4.6479158 569.43121)
(317.0517 4.6479158 569.39258)
(317.02499 4.6479158 569.35822)
(316.99271 4.6479158 569.32892)
(316.9559 4.6479158 569.30573)
(316.9155 4.6479158 569.28918)
(316.87289 4.6479158 569.28003)
(316.82941 4.6479158 569.27838)
(316.78619 4.6479158 569.2843)
(316.74469 4.6479158 569.29761)
(316.70621 4.6479158 569.31787)
(316.67169 4.6479158 569.3446)
(316.64249 4.6479158 569.37689)
(316.6192 4.6479158 569.41382)
(316.60281 4.6479158 569.4541)
(316.5936 4.6479158 569.4967)
(316.59189 4.6479158 569.54028)
(316.59781 4.6479158 569.5835)
(316.61111 4.6479158 569.62488)
(316.6315 4.6479158 569.66351)
(316.6582 4.6479158 569.69788)
(316.69049 4.6479158 569.72717)
(316.72729 4.6479158 569.75043)
(316.7677 4.6479158 569.76691)
(316.8103 4.6479158 569.77612)
(314.89941 4.6479158 569.86969)
(314.8562 4.6479158 569.87561)
(314.94089 4.6479158 569.85632)
(314.9794 4.6479158 569.836)
(315.01389 4.6479158 569.80933)
(315.04309 4.6479158 569.77698)
(315.06641 4.6479158 569.74011)
(315.08279 4.6479158 569.69983)
(315.09201 4.6479158 569.65723)
(315.09369 4.6479158 569.61371)
(315.0878 4.6479158 569.5705)
(315.07449 4.6479158 569.52899)
(315.05411 4.6479158 569.49042)
(315.0274 4.6479158 569.45599)
(314.99509 4.6479158 569.4267)
(314.95831 4.6479158 569.4035)
(314.91791 4.6479158 569.38708)
(314.87531 4.6479158 569.37793)
(314.83179 4.6479158 569.37622)
(314.7886 4.6479158 569.38208)
(314.7471 4.6479158 569.39539)
(314.70859 4.6479158 569.41577)
(314.6741 4.6479158 569.4425)
(314.6449 4.6479158 569.47479)
(314.62161 4.6479158 569.5116)
(314.60519 4.6479158 569.552)
(314.59601 4.6479158 569.5946)
(314.5943 4.6479158 569.63812)
(314.60019 4.6479158 569.68127)
(314.61349 4.6479158 569.72278)
(314.63391 4.6479158 569.76129)
(314.66061 4.6479158 569.79578)
(314.6929 4.6479158 569.82501)
(314.72971 4.6479158 569.84821)
(314.77011 4.6479158 569.86469)
(314.81271 4.6479158 569.8739)
(310.90421 4.6479158 570.06531)
(310.86099 4.6479158 570.07129)
(310.94571 4.6479158 570.052)
(310.98419 4.6479158 570.03168)
(311.01871 4.6479158 570.005)
(311.04791 4.6479158 569.97272)
(311.07111 4.6479158 569.93579)
(311.08759 4.6479158 569.89551)
(311.0968 4.6479158 569.85291)
(311.09851 4.6479158 569.80933)
(311.09259 4.6479158 569.76617)
(311.07919 4.6479158 569.72467)
(311.0589 4.6479158 569.6861)
(311.0322 4.6479158 569.65167)
(310.99991 4.6479158 569.62238)
(310.96301 4.6479158 569.59918)
(310.9227 4.6479158 569.5827)
(310.8801 4.6479158 569.57349)
(310.83661 4.6479158 569.5719)
(310.7934 4.6479158 569.57782)
(310.75189 4.6479158 569.59113)
(310.71329 4.6479158 569.61139)
(310.67889 4.6479158 569.63812)
(310.6496 4.6479158 569.67041)
(310.6264 4.6479158 569.70728)
(310.60999 4.6479158 569.74762)
(310.6008 4.6479158 569.79022)
(310.59909 4.6479158 569.8338)
(310.60501 4.6479158 569.87701)
(310.61829 4.6479158 569.9184)
(310.63861 4.6479158 569.95697)
(310.66541 4.6479158 569.99139)
(310.6976 4.6479158 570.02069)
(310.7345 4.6479158 570.04388)
(310.7749 4.6479158 570.06042)
(310.8175 4.6479158 570.06958)
(314.80161 4.6479158 567.87207)
(314.75839 4.6479158 567.87799)
(314.84311 4.6479158 567.8587)
(314.88159 4.6479158 567.83838)
(314.91599 4.6479158 567.81171)
(314.94531 4.6479158 567.77942)
(314.96851 4.6479158 567.74249)
(314.98499 4.6479158 567.70221)
(314.9942 4.6479158 567.65961)
(314.99591 4.6479158 567.61609)
(314.9899 4.6479158 567.57288)
(314.97659 4.6479158 567.53137)
(314.9563 4.6479158 567.4928)
(314.9296 4.6479158 567.45837)
(314.89731 4.6479158 567.42908)
(314.86041 4.6479158 567.40588)
(314.8201 4.6479158 567.38953)
(314.7775 4.6479158 567.38031)
(314.73389 4.6479158 567.3786)
(314.6908 4.6479158 567.38452)
(314.64929 4.6479158 567.39783)
(314.61069 4.6479158 567.41809)
(314.57629 4.6479158 567.44489)
(314.547 4.6479158 567.47711)
(314.5238 4.6479158 567.51398)
(314.50729 4.6479158 567.55438)
(314.49811 4.6479158 567.59698)
(314.49649 4.6479158 567.6405)
(314.50241 4.6479158 567.68372)
(314.51569 4.6479158 567.72522)
(314.53601 4.6479158 567.76367)
(314.56271 4.6479158 567.79822)
(314.595 4.6479158 567.82739)
(314.6319 4.6479158 567.85059)
(314.67221 4.6479158 567.86713)
(314.71481 4.6479158 567.87628)
(312.80399 4.6479158 567.96991)
(312.7608 4.6479158 567.97583)
(312.8454 4.6479158 567.9566)
(312.884 4.6479158 567.93622)
(312.9184 4.6479158 567.90948)
(312.94769 4.6479158 567.87732)
(312.97089 4.6479158 567.84039)
(312.9874 4.6479158 567.79999)
(312.99661 4.6479158 567.75739)
(312.99829 4.6479158 567.71393)
(312.99231 4.6479158 567.67072)
(312.979 4.6479158 567.62921)
(312.95871 4.6479158 567.5907)
(312.93201 4.6479158 567.55621)
(312.89969 4.6479158 567.52698)
(312.86279 4.6479158 567.50378)
(312.82251 4.6479158 567.4873)
(312.77991 4.6479158 567.47809)
(312.7363 4.6479158 567.47638)
(312.69312 4.6479158 567.4823)
(312.6517 4.6479158 567.49573)
(312.6131 4.6479158 567.51599)
(312.5787 4.6479158 567.54272)
(312.54941 4.6479158 567.57501)
(312.52621 4.6479158 567.61188)
(312.5097 4.6479158 567.65222)
(312.50049 4.6479158 567.69482)
(312.4989 4.6479158 567.73828)
(312.50479 4.6479158 567.78149)
(312.5181 4.6479158 567.823)
(312.53839 4.6479158 567.86157)
(312.56509 4.6479158 567.896)
(312.59741 4.6479158 567.92529)
(312.63431 4.6479158 567.94849)
(312.67459 4.6479158 567.9649)
(312.71719 4.6479158 567.97412)
(311.00201 4.6479158 572.06293)
(310.9588 4.6479158 572.06891)
(311.04349 4.6479158 572.04962)
(311.08209 4.6479158 572.0293)
(311.11649 4.6479158 572.00262)
(311.14581 4.6479158 571.97028)
(311.16901 4.6479158 571.93341)
(311.18539 4.6479158 571.89313)
(311.19461 4.6479158 571.85052)
(311.19629 4.6479158 571.80688)
(311.1904 4.6479158 571.76379)
(311.17709 4.6479158 571.72229)
(311.15671 4.6479158 571.68372)
(311.13 4.6479158 571.64929)
(311.09781 4.6479158 571.62)
(311.06091 4.6479158 571.5968)
(311.02051 4.6479158 571.58032)
(310.97791 4.6479158 571.57111)