/*--------------------------------*- C++ -*----------------------------------*\
  =========                 |
  \\      /  F ield         | OpenFOAM: The Open Source CFD Toolbox
   \\    /   O peration     | Website:  https://openfoam.org
    \\  /    A nd           | Version:  9
     \\/     M anipulation  |
\*---------------------------------------------------------------------------*/
FoamFile
{
    format      ascii;
    class       featureEdgeMesh;
    location    "constant/triSurface";
    object      impeller.eMesh;
}
// * * * * * * * * * * * * * * * * * * * * * * * * * * * * * * * * * * * * * //


// points:

264
(
(64.3722 17 77.7904)
(68.2295 17 87.0165)
(68.2295 25 87.0165)
(64.3722 25 77.7904)
(65.1082 22.1 79.5508)
(65.1082 19.9 79.5508)
(55.7804 20 70.2646)
(55.7804 22.1 70.2646)
(57.673 25 70.5074)
(47.7543 25 69.2349)
(47.7543 17 69.2349)
(57.673 17 70.5074)
(60.0326 17 67.4111)
(61.8778 17 66.6396)
(56.1753 17 58.185)
(56.1753 25 58.185)
(58.0205 17 57.4135)
(58.0205 25 57.4135)
(60.0326 25 67.4111)
(61.8778 25 66.6396)
(61.1418 22.1 64.8792)
(61.1418 19.9 64.8792)
(57.4185 17 72.4911)
(47.4998 17 71.2186)
(47.4998 25 71.2186)
(57.4185 25 72.4911)
(60.5108 17 77.295)
(58.9201 17 76.0828)
(54.4495 17 85.2487)
(54.4495 25 85.2487)
(52.8588 17 84.0364)
(52.8588 25 84.0364)
(60.5108 25 77.295)
(58.9201 25 76.0828)
(57.7636 22.1 77.6003)
(57.7636 19.9 77.6003)
(66.2174 17 77.0189)
(70.0747 17 86.245)
(70.0747 25 86.245)
(66.2174 25 77.0189)
(68.8315 17 71.9389)
(68.577 17 73.9226)
(78.7502 17 73.2114)
(78.7502 25 73.2114)
(78.4957 17 75.1951)
(78.4957 25 75.1951)
(68.8315 25 71.9389)
(68.577 25 73.9226)
(70.4696 19.9 74.1654)
(70.4696 22.1 74.1654)
(65.7391 17 67.1349)
(67.3299 17 68.3472)
(71.8005 17 59.1813)
(71.8005 25 59.1813)
(73.3912 17 60.3936)
(73.3912 25 60.3936)
(65.7391 25 67.1349)
(67.3299 25 68.3472)
(68.4876 22.0951 66.8281)
(68.4876 19.8951 66.8281)
(65.8793 22.0951 67.116)
(65.8793 24.9 67.116)
(71.8194 24.9 59.3215)
(71.8194 17.1 59.3215)
(65.8793 17.1 67.116)
(65.8793 19.8951 67.116)
(60.0863 24.9 67.2802)
(56.3061 24.9 58.2387)
(56.3061 17.1 58.2387)
(60.0863 17.1 67.2802)
(60.0863 19.9 67.2802)
(60.0863 22.1 67.2802)
(57.332 22.1 72.3792)
(57.332 24.9 72.3792)
(47.6117 24.9 71.1322)
(47.6117 17.1 71.1322)
(57.332 17.1 72.3792)
(57.332 19.9 72.3792)
(60.3707 19.9 77.314)
(60.3707 22.1 77.314)
(60.3707 24.9 77.314)
(54.4306 24.9 85.1085)
(54.4306 17.1 85.1085)
(60.3707 17.1 77.314)
(66.1637 24.9 77.1498)
(69.9439 24.9 86.1913)
(69.9439 17.1 86.1913)
(66.1637 17.1 77.1498)
(66.1637 19.9 77.1498)
(66.1637 22.1 77.1498)
(68.918 22.1 72.0508)
(68.918 24.9 72.0508)
(78.6383 24.9 73.2978)
(78.6383 17.1 73.2978)
(68.918 17.1 72.0508)
(68.918 19.9 72.0508)
(64.4107 19.9 77.8827)
(64.3722 20 77.7904)
(64.4107 17.1 77.8827)
(68.1909 17.1 86.9242)
(68.1909 24.9 86.9242)
(64.4107 24.9 77.8827)
(64.4107 22.1 77.8827)
(64.3722 22 77.7904)
(65.0696 22 79.4585)
(65.0696 20 79.4585)
(55.8796 20 70.2773)
(55.8796 22 70.2773)
(57.673 22 70.5074)
(57.5738 22.1 70.4946)
(57.5738 24.9 70.4946)
(47.8535 24.9 69.2476)
(47.8535 17.1 69.2476)
(57.5738 17.1 70.4946)
(57.673 20 70.5074)
(57.5738 19.9 70.4946)
(66.8351 22 65.6969)
(66.8351 20 65.6969)
(61.1804 20 64.9715)
(61.1804 22 64.9715)
(57.8242 22 77.5208)
(58.9201 22 76.0828)
(57.4185 22 72.4911)
(60.0326 22 67.4111)
(59.4149 22 78.7331)
(60.5108 22 77.295)
(61.8778 22 66.6396)
(67.3299 22 68.3472)
(65.7391 22 67.1349)
(55.6251 22 72.261)
(66.9148 22 78.687)
(66.2174 22 77.0189)
(68.8315 22 71.9389)
(68.577 22 73.9226)
(70.3704 22 74.1527)
(68.4258 22 66.9092)
(70.6249 22 72.169)
(59.3352 22 65.743)
(55.6251 20 72.261)
(57.4185 20 72.4911)
(70.6249 20 72.169)
(68.8315 20 71.9389)
(60.0326 20 67.4111)
(61.8778 20 66.6396)
(59.3352 20 65.743)
(59.4149 20 78.7331)
(60.5108 20 77.295)
(67.3299 20 68.3472)
(68.4258 20 66.9092)
(68.577 20 73.9226)
(70.3704 20 74.1527)
(58.9201 20 76.0828)
(57.8242 20 77.5208)
(65.7391 20 67.1349)
(66.9148 20 78.687)
(66.2174 20 77.0189)
(61.8393 19.9 66.5473)
(61.8393 17.1 66.5473)
(58.0591 17.1 57.5058)
(58.0591 24.9 57.5058)
(61.8393 24.9 66.5473)
(61.8393 22.1 66.5473)
(58.8595 19.9 76.1623)
(58.8595 17.1 76.1623)
(52.9194 17.1 83.9569)
(52.9194 24.9 83.9569)
(58.8595 24.9 76.1623)
(58.8595 22.1 76.1623)
(68.6762 22.1 73.9354)
(68.6762 24.9 73.9354)
(78.3966 24.9 75.1824)
(78.3966 17.1 75.1824)
(68.6762 17.1 73.9354)
(68.6762 19.9 73.9354)
(67.3905 19.8951 68.2677)
(67.3905 17.1 68.2677)
(73.3306 17.1 60.4731)
(73.3306 24.9 60.4731)
(67.3905 24.9 68.2677)
(67.3905 22.0951 68.2677)
(66.9764 19.8951 65.6764)
(66.9764 22.0951 65.6764)
(59.3889 19.9 65.6121)
(59.3889 22.1 65.6121)
(55.5387 20 72.1491)
(55.5387 22.1 72.1491)
(59.2748 19.9 78.752)
(59.2748 22.1 78.752)
(66.8611 19.9 78.8179)
(66.8611 22.1 78.8179)
(70.7113 19.9 72.2809)
(70.7113 22.1 72.2809)
(65.0353 20 64.9624)
(65.0353 22 64.9624)
(63.1073 20 64.715)
(63.1073 22 64.715)
(63.1427 22 79.715)
(56.6387 22 75.9803)
(55.8889 22 74.1869)
(61.2147 22 79.4676)
(68.4508 22 77.4957)
(69.629 22 75.9496)
(69.6113 22 68.4497)
(70.3611 22 70.2431)
(56.621 22 68.4804)
(57.7992 22 66.9343)
(55.8889 20 74.1869)
(70.3611 20 70.2431)
(57.7992 20 66.9343)
(56.621 20 68.4804)
(61.2147 20 79.4676)
(69.6113 20 68.4497)
(69.629 20 75.9496)
(56.6387 20 75.9803)
(68.4508 20 77.4957)
(63.1427 20 79.715)
(64.6115 142 72.0143)
(64.6128 142 72.4059)
(64.5127 142 72.7844)
(64.318 142 73.1242)
(64.0421 142 73.402)
(63.7036 142 73.5989)
(63.3257 142 73.7015)
(62.9341 142 73.7028)
(62.5556 142 73.6027)
(62.2158 142 73.408)
(61.938 142 73.1321)
(61.7411 142 72.7936)
(61.6385 142 72.4157)
(61.6372 142 72.0241)
(61.7373 142 71.6456)
(61.932 142 71.3058)
(62.2079 142 71.028)
(62.5464 142 70.8311)
(62.9243 142 70.7285)
(63.3159 142 70.7272)
(63.6944 142 70.8273)
(64.0342 142 71.022)
(64.312 142 71.2979)
(64.5089 142 71.6364)
(62.9341 22 73.7028)
(62.5556 22 73.6027)
(64.318 22 73.1242)
(64.0421 22 73.402)
(63.7036 22 73.5989)
(63.3257 22 73.7015)
(64.0342 22 71.022)
(64.312 22 71.2979)
(62.2079 22 71.028)
(62.5464 22 70.8311)
(62.2158 22 73.408)
(61.938 22 73.1321)
(61.7411 22 72.7936)
(61.6385 22 72.4157)
(64.5089 22 71.6364)
(64.6115 22 72.0143)
(64.6128 22 72.4059)
(64.5127 22 72.7844)
(61.6372 22 72.0241)
(61.7373 22 71.6456)
(61.932 22 71.3058)
(62.9243 22 70.7285)
(63.3159 22 70.7272)
(63.6944 22 70.8273)
)


// edges:

360
(
(98 96)
(97 0)
(99 98)
(0 1)
(100 99)
(1 2)
(101 100)
(2 3)
(102 101)
(3 103)
(4 102)
(5 4)
(96 5)
(6 7)
(7 109)
(8 108)
(109 110)
(9 8)
(110 111)
(10 9)
(111 112)
(11 10)
(112 113)
(114 11)
(113 115)
(115 6)
(117 192)
(193 116)
(192 194)
(195 193)
(194 118)
(119 195)
(196 104)
(197 120)
(198 197)
(124 199)
(199 196)
(129 198)
(130 200)
(200 201)
(201 134)
(202 135)
(203 202)
(136 203)
(204 107)
(205 204)
(137 205)
(206 138)
(207 140)
(208 144)
(209 208)
(106 209)
(210 145)
(148 211)
(150 212)
(213 206)
(152 213)
(212 214)
(211 207)
(214 154)
(105 215)
(215 210)
(216 217)
(217 218)
(218 219)
(219 220)
(220 221)
(221 222)
(222 223)
(223 224)
(224 225)
(225 226)
(226 227)
(227 228)
(228 229)
(229 230)
(230 231)
(231 232)
(232 233)
(233 234)
(234 235)
(235 236)
(236 237)
(237 238)
(238 239)
(239 216)
(142 12)
(13 143)
(12 13)
(14 15)
(16 14)
(17 16)
(15 17)
(123 18)
(18 15)
(14 12)
(126 19)
(19 18)
(157 156)
(158 157)
(13 16)
(159 158)
(160 159)
(17 19)
(161 160)
(20 161)
(21 20)
(156 21)
(139 22)
(22 11)
(23 24)
(10 23)
(24 9)
(122 25)
(25 24)
(23 22)
(8 25)
(146 26)
(27 151)
(26 27)
(28 29)
(30 28)
(31 30)
(29 31)
(125 32)
(32 29)
(28 26)
(121 33)
(33 32)
(163 162)
(164 163)
(27 30)
(165 164)
(166 165)
(31 33)
(167 166)
(34 167)
(35 34)
(162 35)
(155 36)
(36 0)
(37 38)
(1 37)
(38 2)
(131 39)
(39 38)
(37 36)
(3 39)
(141 40)
(41 149)
(40 41)
(42 43)
(44 42)
(45 44)
(43 45)
(132 46)
(46 43)
(42 40)
(133 47)
(47 46)
(48 49)
(49 168)
(168 169)
(45 47)
(169 170)
(170 171)
(41 44)
(171 172)
(172 173)
(173 48)
(153 50)
(51 147)
(50 51)
(52 53)
(54 52)
(55 54)
(53 55)
(128 56)
(56 53)
(52 50)
(127 57)
(57 56)
(175 174)
(176 175)
(51 54)
(177 176)
(178 177)
(55 57)
(179 178)
(58 179)
(59 58)
(174 59)
(59 180)
(181 58)
(182 21)
(183 20)
(184 6)
(185 7)
(186 35)
(187 34)
(188 5)
(189 4)
(190 48)
(191 49)
(103 104)
(104 105)
(105 97)
(107 106)
(108 107)
(106 114)
(116 117)
(118 119)
(120 121)
(108 122)
(125 124)
(119 126)
(240 241)
(242 243)
(243 244)
(127 128)
(122 129)
(131 130)
(133 132)
(134 133)
(132 136)
(121 125)
(244 245)
(245 240)
(246 247)
(128 116)
(248 249)
(123 137)
(241 250)
(250 251)
(251 252)
(252 253)
(247 254)
(254 255)
(255 256)
(126 123)
(135 127)
(103 131)
(256 257)
(257 242)
(253 258)
(258 259)
(259 260)
(260 248)
(249 261)
(261 262)
(262 263)
(263 246)
(138 139)
(140 141)
(142 143)
(144 142)
(145 146)
(147 148)
(149 150)
(151 152)
(143 118)
(117 153)
(141 149)
(154 155)
(153 147)
(155 97)
(139 114)
(146 151)
(136 140)
(148 135)
(130 154)
(150 134)
(124 145)
(129 138)
(152 120)
(137 144)
(180 181)
(181 60)
(60 179)
(60 61)
(61 178)
(61 62)
(62 177)
(62 63)
(63 176)
(63 64)
(64 175)
(64 65)
(65 174)
(65 180)
(160 66)
(66 67)
(67 159)
(67 68)
(68 158)
(68 69)
(69 157)
(69 70)
(70 156)
(70 182)
(182 183)
(183 71)
(71 161)
(71 66)
(109 72)
(72 73)
(73 110)
(73 74)
(74 111)
(74 75)
(75 112)
(75 76)
(76 113)
(76 77)
(77 115)
(77 184)
(184 185)
(185 72)
(162 78)
(78 186)
(186 187)
(187 79)
(79 167)
(79 80)
(80 166)
(80 81)
(81 165)
(81 82)
(82 164)
(82 83)
(83 163)
(83 78)
(101 84)
(84 85)
(85 100)
(85 86)
(86 99)
(86 87)
(87 98)
(87 88)
(88 96)
(88 188)
(188 189)
(189 89)
(89 102)
(89 84)
(168 90)
(90 91)
(91 169)
(91 92)
(92 170)
(92 93)
(93 171)
(93 94)
(94 172)
(94 95)
(95 173)
(95 190)
(190 191)
(191 90)
)

// * * * * * * * * * * * * * * * * * * * * * * * * * * * * * * * * * * * * * //


// ************************************************************************* //
