/*--------------------------------*- C++ -*----------------------------------*\
  =========                 |
  \\      /  F ield         | OpenFOAM: The Open Source CFD Toolbox
   \\    /   O peration     | Website:  https://openfoam.org
    \\  /    A nd           | Version:  9
     \\/     M anipulation  |
\*---------------------------------------------------------------------------*/
FoamFile
{
    format      ascii;
    class       extendedFeatureEdgeMesh;
    location    "constant/extendedFeatureEdgeMesh";
    object      drafttube.extendedFeatureEdgeMesh;
}
// * * * * * * * * * * * * * * * * * * * * * * * * * * * * * * * * * * * * * //

// points

351
(
(486.03531 228.3096 1064.889)
(478.91949 228.3096 1064.38)
(486.03531 478.3096 1064.889)
(493.0061 478.3096 1066.405)
(493.0061 228.3096 1066.405)
(499.69031 478.3096 1068.8979)
(499.69031 228.3096 1068.8979)
(505.9516 478.3096 1072.317)
(505.9516 228.3096 1072.317)
(511.66251 478.3096 1076.593)
(511.66251 228.3096 1076.593)
(516.70697 478.3096 1081.637)
(516.70697 228.3096 1081.637)
(520.98218 478.3096 1087.348)
(520.98218 228.3096 1087.348)
(524.40112 478.3096 1093.609)
(524.40112 228.3096 1093.609)
(526.89423 478.3096 1100.293)
(526.89423 228.3096 1100.293)
(528.41058 478.3096 1107.264)
(528.41058 228.3096 1107.264)
(528.91949 478.3096 1114.38)
(528.91949 228.3096 1114.38)
(528.41058 478.3096 1121.496)
(528.41058 228.3096 1121.496)
(526.89423 478.3096 1128.467)
(526.89423 228.3096 1128.467)
(524.40112 478.3096 1135.151)
(524.40112 228.3096 1135.151)
(520.98218 478.3096 1141.412)
(520.98218 228.3096 1141.412)
(516.70697 478.3096 1147.123)
(516.70697 228.3096 1147.123)
(511.66251 478.3096 1152.168)
(511.66251 228.3096 1152.168)
(505.9516 478.3096 1156.443)
(505.9516 228.3096 1156.443)
(499.69031 478.3096 1159.8621)
(499.69031 228.3096 1159.8621)
(493.0061 478.3096 1162.355)
(493.0061 228.3096 1162.355)
(486.03531 478.3096 1163.871)
(486.03531 228.3096 1163.871)
(478.91949 478.3096 1164.38)
(478.91949 228.3096 1164.38)
(471.8038 478.3096 1163.871)
(471.8038 228.3096 1163.871)
(464.83289 478.3096 1162.355)
(464.83289 228.3096 1162.355)
(458.1488 478.3096 1159.8621)
(458.1488 228.3096 1159.8621)
(451.88751 478.3096 1156.443)
(451.88751 228.3096 1156.443)
(446.17651 478.3096 1152.168)
(446.17651 228.3096 1152.168)
(441.13199 478.3096 1147.123)
(441.13199 228.3096 1147.123)
(436.85681 478.3096 1141.412)
(436.85681 228.3096 1141.412)
(433.4379 478.3096 1135.151)
(433.4379 228.3096 1135.151)
(430.94489 478.3096 1128.467)
(430.94489 228.3096 1128.467)
(429.42841 478.3096 1121.496)
(429.42841 228.3096 1121.496)
(428.91949 478.3096 1114.38)
(428.91949 228.3096 1114.38)
(429.42841 478.3096 1107.264)
(429.42841 228.3096 1107.264)
(430.94489 478.3096 1100.293)
(430.94489 228.3096 1100.293)
(433.4379 478.3096 1093.609)
(433.4379 228.3096 1093.609)
(436.85681 478.3096 1087.348)
(436.85681 228.3096 1087.348)
(441.13199 478.3096 1081.637)
(441.13199 228.3096 1081.637)
(446.17651 478.3096 1076.593)
(446.17651 228.3096 1076.593)
(451.88751 478.3096 1072.317)
(451.88751 228.3096 1072.317)
(458.1488 478.3096 1068.8979)
(458.1488 228.3096 1068.8979)
(464.83289 478.3096 1066.405)
(464.83289 228.3096 1066.405)
(471.8038 478.3096 1064.889)
(471.8038 228.3096 1064.889)
(478.91949 478.3096 1064.38)
(525.62939 478.3096 1123.0081)
(523.87543 478.3096 1129.717)
(526.38782 478.3096 1116.115)
(526.13458 478.3096 1109.1851)
(524.875 478.3096 1102.366)
(522.63599 478.3096 1095.803)
(519.46521 478.3096 1089.635)
(515.4303 478.3096 1083.996)
(510.61719 478.3096 1079.0031)
(505.12851 478.3096 1074.765)
(499.08121 478.3096 1071.371)
(492.60419 478.3096 1068.894)
(485.8356 478.3096 1067.386)
(478.91949 478.3096 1066.88)
(472.00351 478.3096 1067.386)
(465.2348 478.3096 1068.894)
(458.75781 478.3096 1071.371)
(452.71051 478.3096 1074.765)
(447.22189 478.3096 1079.0031)
(442.40881 478.3096 1083.996)
(438.37381 478.3096 1089.635)
(435.20309 478.3096 1095.803)
(432.96399 478.3096 1102.366)
(431.7045 478.3096 1109.1851)
(431.4512 478.3096 1116.115)
(432.20959 478.3096 1123.0081)
(433.96359 478.3096 1129.717)
(436.67581 478.3096 1136.099)
(440.28821 478.3096 1142.0179)
(444.72409 478.3096 1147.349)
(449.88879 478.3096 1151.976)
(455.67221 478.3096 1155.802)
(461.95099 478.3096 1158.746)
(468.59161 478.3096 1160.744)
(475.45221 478.3096 1161.7531)
(478.91949 478.3096 1161.88)
(482.38681 478.3096 1161.7531)
(489.24741 478.3096 1160.744)
(495.888 478.3096 1158.746)
(502.1669 478.3096 1155.802)
(507.95029 478.3096 1151.976)
(513.11493 478.3096 1147.349)
(517.55078 478.3096 1142.0179)
(521.16333 478.3096 1136.099)
(468.59161 228.3096 1160.744)
(475.45221 228.3096 1161.7531)
(461.95099 228.3096 1158.746)
(455.67221 228.3096 1155.802)
(449.88879 228.3096 1151.976)
(444.72409 228.3096 1147.349)
(440.28821 228.3096 1142.0179)
(436.67581 228.3096 1136.099)
(433.96359 228.3096 1129.717)
(432.20959 228.3096 1123.0081)
(431.4512 228.3096 1116.115)
(431.7045 228.3096 1109.1851)
(432.96399 228.3096 1102.366)
(435.20309 228.3096 1095.803)
(438.37381 228.3096 1089.635)
(442.40881 228.3096 1083.996)
(447.22189 228.3096 1079.0031)
(452.71051 228.3096 1074.765)
(458.75781 228.3096 1071.371)
(465.2348 228.3096 1068.894)
(472.00351 228.3096 1067.386)
(478.91949 228.3096 1066.88)
(485.8356 228.3096 1067.386)
(492.60419 228.3096 1068.894)
(499.08121 228.3096 1071.371)
(505.12851 228.3096 1074.765)
(510.61719 228.3096 1079.0031)
(515.4303 228.3096 1083.996)
(519.46521 228.3096 1089.635)
(522.63599 228.3096 1095.803)
(524.875 228.3096 1102.366)
(526.13458 228.3096 1109.1851)
(526.38782 228.3096 1116.115)
(525.62939 228.3096 1123.0081)
(523.87543 228.3096 1129.717)
(521.16333 228.3096 1136.099)
(517.55078 228.3096 1142.0179)
(513.11493 228.3096 1147.349)
(507.95029 228.3096 1151.976)
(502.1669 228.3096 1155.802)
(495.888 228.3096 1158.746)
(489.24741 228.3096 1160.744)
(482.38681 228.3096 1161.7531)
(486.03531 638.30957 1064.889)
(478.91949 638.30957 1064.38)
(486.03531 888.30957 1064.889)
(493.0061 888.30957 1066.405)
(493.0061 638.30957 1066.405)
(499.69031 888.30957 1068.8979)
(499.69031 638.30957 1068.8979)
(505.9516 888.30957 1072.317)
(505.9516 638.30957 1072.317)
(511.66251 888.30957 1076.593)
(511.66251 638.30957 1076.593)
(516.70697 888.30957 1081.637)
(516.70697 638.30957 1081.637)
(520.98218 888.30957 1087.348)
(520.98218 638.30957 1087.348)
(524.40112 888.30957 1093.609)
(524.40112 638.30957 1093.609)
(526.89423 888.30957 1100.293)
(526.89423 638.30957 1100.293)
(528.41058 888.30957 1107.264)
(528.41058 638.30957 1107.264)
(528.91949 888.30957 1114.38)
(528.91949 638.30957 1114.38)
(528.41058 888.30957 1121.496)
(528.41058 638.30957 1121.496)
(526.89423 888.30957 1128.467)
(526.89423 638.30957 1128.467)
(524.40112 888.30957 1135.151)
(524.40112 638.30957 1135.151)
(520.98218 888.30957 1141.412)
(520.98218 638.30957 1141.412)
(516.70697 888.30957 1147.123)
(516.70697 638.30957 1147.123)
(511.66251 888.30957 1152.168)
(511.66251 638.30957 1152.168)
(505.9516 888.30957 1156.443)
(505.9516 638.30957 1156.443)
(499.69031 888.30957 1159.8621)
(499.69031 638.30957 1159.8621)
(493.0061 888.30957 1162.355)
(493.0061 638.30957 1162.355)
(486.03531 888.30957 1163.871)
(486.03531 638.30957 1163.871)
(478.91949 888.30957 1164.38)
(478.91949 638.30957 1164.38)
(471.8038 888.30957 1163.871)
(471.8038 638.30957 1163.871)
(464.83289 888.30957 1162.355)
(464.83289 638.30957 1162.355)
(458.1488 888.30957 1159.8621)
(458.1488 638.30957 1159.8621)
(451.88751 888.30957 1156.443)
(451.88751 638.30957 1156.443)
(446.17651 888.30957 1152.168)
(446.17651 638.30957 1152.168)
(441.13199 888.30957 1147.123)
(441.13199 638.30957 1147.123)
(436.85681 888.30957 1141.412)
(436.85681 638.30957 1141.412)
(433.4379 888.30957 1135.151)
(433.4379 638.30957 1135.151)
(430.94489 888.30957 1128.467)
(430.94489 638.30957 1128.467)
(429.42841 888.30957 1121.496)
(429.42841 638.30957 1121.496)
(428.91949 888.30957 1114.38)
(428.91949 638.30957 1114.38)
(429.42841 888.30957 1107.264)
(429.42841 638.30957 1107.264)
(430.94489 888.30957 1100.293)
(430.94489 638.30957 1100.293)
(433.4379 888.30957 1093.609)
(433.4379 638.30957 1093.609)
(436.85681 888.30957 1087.348)
(436.85681 638.30957 1087.348)
(441.13199 888.30957 1081.637)
(441.13199 638.30957 1081.637)
(446.17651 888.30957 1076.593)
(446.17651 638.30957 1076.593)
(451.88751 888.30957 1072.317)
(451.88751 638.30957 1072.317)
(458.1488 888.30957 1068.8979)
(458.1488 638.30957 1068.8979)
(464.83289 888.30957 1066.405)
(464.83289 638.30957 1066.405)
(471.8038 888.30957 1064.889)
(471.8038 638.30957 1064.889)
(478.91949 888.30957 1064.38)
(525.62939 888.30957 1123.0081)
(523.87543 888.30957 1129.717)
(526.38782 888.30957 1116.115)
(526.13458 888.30957 1109.1851)
(524.875 888.30957 1102.366)
(522.63599 888.30957 1095.803)
(519.46521 888.30957 1089.635)
(515.4303 888.30957 1083.996)
(510.61719 888.30957 1079.0031)
(505.12851 888.30957 1074.765)
(499.08121 888.30957 1071.371)
(492.60419 888.30957 1068.894)
(485.8356 888.30957 1067.386)
(478.91949 888.30957 1066.88)
(472.00351 888.30957 1067.386)
(465.2348 888.30957 1068.894)
(458.75781 888.30957 1071.371)
(452.71051 888.30957 1074.765)
(447.22189 888.30957 1079.0031)
(442.40881 888.30957 1083.996)
(438.37381 888.30957 1089.635)
(435.20309 888.30957 1095.803)
(432.96399 888.30957 1102.366)
(431.7045 888.30957 1109.1851)
(431.4512 888.30957 1116.115)
(432.20959 888.30957 1123.0081)
(433.96359 888.30957 1129.717)
(436.67581 888.30957 1136.099)
(440.28821 888.30957 1142.0179)
(444.72409 888.30957 1147.349)
(449.88879 888.30957 1151.976)
(455.67221 888.30957 1155.802)
(461.95099 888.30957 1158.746)
(468.59161 888.30957 1160.744)
(475.45221 888.30957 1161.7531)
(478.91949 888.30957 1161.88)
(482.38681 888.30957 1161.7531)
(489.24741 888.30957 1160.744)
(495.888 888.30957 1158.746)
(502.1669 888.30957 1155.802)
(507.95029 888.30957 1151.976)
(513.11493 888.30957 1147.349)
(517.55078 888.30957 1142.0179)
(521.16333 888.30957 1136.099)
(431.4512 638.30957 1116.115)
(432.20959 638.30957 1123.0081)
(431.7045 638.30957 1109.1851)
(432.96399 638.30957 1102.366)
(435.20309 638.30957 1095.803)
(438.37381 638.30957 1089.635)
(442.40881 638.30957 1083.996)
(447.22189 638.30957 1079.0031)
(452.71051 638.30957 1074.765)
(458.75781 638.30957 1071.371)
(465.2348 638.30957 1068.894)
(472.00351 638.30957 1067.386)
(478.91949 638.30957 1066.88)
(485.8356 638.30957 1067.386)
(492.60419 638.30957 1068.894)
(499.08121 638.30957 1071.371)
(505.12851 638.30957 1074.765)
(510.61719 638.30957 1079.0031)
(515.4303 638.30957 1083.996)
(519.46521 638.30957 1089.635)
(522.63599 638.30957 1095.803)
(524.875 638.30957 1102.366)
(526.13458 638.30957 1109.1851)
(526.38782 638.30957 1116.115)
(525.62939 638.30957 1123.0081)
(523.87543 638.30957 1129.717)
(521.16333 638.30957 1136.099)
(517.55078 638.30957 1142.0179)
(513.11493 638.30957 1147.349)
(507.95029 638.30957 1151.976)
(502.1669 638.30957 1155.802)
(495.888 638.30957 1158.746)
(489.24741 638.30957 1160.744)
(482.38681 638.30957 1161.7531)
(478.91949 638.30957 1161.88)
(475.45221 638.30957 1161.7531)
(468.59161 638.30957 1160.744)
(461.95099 638.30957 1158.746)
(455.67221 638.30957 1155.802)
(449.88879 638.30957 1151.976)
(444.72409 638.30957 1147.349)
(440.28821 638.30957 1142.0179)
(436.67581 638.30957 1136.099)
(433.96359 638.30957 1129.717)
)

// edges

351
(
(0 1)
(2 3)
(4 0)
(3 5)
(6 4)
(5 7)
(8 6)
(7 9)
(10 8)
(9 11)
(12 10)
(11 13)
(14 12)
(13 15)
(16 14)
(15 17)
(18 16)
(17 19)
(20 18)
(19 21)
(22 20)
(21 23)
(24 22)
(23 25)
(26 24)
(25 27)
(28 26)
(27 29)
(30 28)
(29 31)
(32 30)
(31 33)
(34 32)
(33 35)
(36 34)
(35 37)
(38 36)
(37 39)
(40 38)
(39 41)
(42 40)
(41 43)
(44 42)
(43 45)
(46 44)
(45 47)
(48 46)
(47 49)
(50 48)
(49 51)
(52 50)
(51 53)
(54 52)
(53 55)
(56 54)
(55 57)
(58 56)
(57 59)
(60 58)
(59 61)
(62 60)
(61 63)
(64 62)
(63 65)
(66 64)
(65 67)
(68 66)
(67 69)
(70 68)
(69 71)
(72 70)
(71 73)
(74 72)
(73 75)
(76 74)
(75 77)
(78 76)
(77 79)
(80 78)
(79 81)
(82 80)
(81 83)
(84 82)
(83 85)
(86 84)
(85 87)
(1 86)
(87 2)
(88 89)
(90 88)
(91 90)
(92 91)
(93 92)
(94 93)
(95 94)
(96 95)
(97 96)
(98 97)
(99 98)
(100 99)
(101 100)
(102 101)
(103 102)
(104 103)
(105 104)
(106 105)
(107 106)
(108 107)
(109 108)
(110 109)
(111 110)
(112 111)
(113 112)
(114 113)
(115 114)
(116 115)
(117 116)
(118 117)
(119 118)
(120 119)
(121 120)
(122 121)
(123 122)
(124 123)
(125 124)
(126 125)
(127 126)
(128 127)
(129 128)
(130 129)
(131 130)
(89 131)
(132 133)
(134 132)
(135 134)
(136 135)
(137 136)
(138 137)
(139 138)
(140 139)
(141 140)
(142 141)
(143 142)
(144 143)
(145 144)
(146 145)
(147 146)
(148 147)
(149 148)
(150 149)
(151 150)
(152 151)
(153 152)
(154 153)
(155 154)
(156 155)
(157 156)
(158 157)
(159 158)
(160 159)
(161 160)
(162 161)
(163 162)
(164 163)
(165 164)
(166 165)
(167 166)
(168 167)
(169 168)
(170 169)
(171 170)
(172 171)
(173 172)
(174 173)
(133 174)
(175 176)
(177 178)
(179 175)
(178 180)
(181 179)
(180 182)
(183 181)
(182 184)
(185 183)
(184 186)
(187 185)
(186 188)
(189 187)
(188 190)
(191 189)
(190 192)
(193 191)
(192 194)
(195 193)
(194 196)
(197 195)
(196 198)
(199 197)
(198 200)
(201 199)
(200 202)
(203 201)
(202 204)
(205 203)
(204 206)
(207 205)
(206 208)
(209 207)
(208 210)
(211 209)
(210 212)
(213 211)
(212 214)
(215 213)
(214 216)
(217 215)
(216 218)
(219 217)
(218 220)
(221 219)
(220 222)
(223 221)
(222 224)
(225 223)
(224 226)
(227 225)
(226 228)
(229 227)
(228 230)
(231 229)
(230 232)
(233 231)
(232 234)
(235 233)
(234 236)
(237 235)
(236 238)
(239 237)
(238 240)
(241 239)
(240 242)
(243 241)
(242 244)
(245 243)
(244 246)
(247 245)
(246 248)
(249 247)
(248 250)
(251 249)
(250 252)
(253 251)
(252 254)
(255 253)
(254 256)
(257 255)
(256 258)
(259 257)
(258 260)
(261 259)
(260 262)
(176 261)
(262 177)
(263 264)
(265 263)
(266 265)
(267 266)
(268 267)
(269 268)
(270 269)
(271 270)
(272 271)
(273 272)
(274 273)
(275 274)
(276 275)
(277 276)
(278 277)
(279 278)
(280 279)
(281 280)
(282 281)
(283 282)
(284 283)
(285 284)
(286 285)
(287 286)
(288 287)
(289 288)
(290 289)
(291 290)
(292 291)
(293 292)
(294 293)
(295 294)
(296 295)
(297 296)
(298 297)
(299 298)
(300 299)
(301 300)
(302 301)
(303 302)
(304 303)
(305 304)
(306 305)
(264 306)
(307 308)
(309 307)
(310 309)
(311 310)
(312 311)
(313 312)
(314 313)
(315 314)
(316 315)
(317 316)
(318 317)
(319 318)
(320 319)
(321 320)
(322 321)
(323 322)
(324 323)
(325 324)
(326 325)
(327 326)
(328 327)
(329 328)
(330 329)
(331 330)
(332 331)
(333 332)
(334 333)
(335 334)
(336 335)
(337 336)
(338 337)
(339 338)
(340 339)
(341 340)
(342 341)
(343 342)
(344 343)
(345 344)
(346 345)
(347 346)
(348 347)
(349 348)
(350 349)
(308 350)
)

// concaveStart mixedStart nonFeatureStart
0 0 0
// internalStart flatStart openStart multipleStart
351 351 351 351
// normals

702
(
(0.071353147 0 -0.99745112)
(0 -1 -0)
(0.2125101 0 -0.97715887)
(0 1 0)
(0.2125101 0 -0.97715887)
(0 -1 -0)
(0.34944458 0 -0.93695704)
(-0 1 0)
(0.34944458 0 -0.93695704)
(0 -1 -0)
(0.47926449 0 -0.87767053)
(-0 1 0)
(0.47926449 0 -0.87767053)
(0 -1 -0)
(0.59935577 0 -0.80048276)
(-0 1 0)
(0.59935577 0 -0.80048276)
(0 -1 -0)
(0.70707042 0 -0.70714314)
(-0 1 0)
(0.70707042 0 -0.70714314)
(0 -1 -0)
(0.8005438 0 -0.59927424)
(-0 1 0)
(0.8005438 0 -0.59927424)
(0 -1 -0)
(0.8776679 0 -0.4792693)
(-0 1 0)
(0.8776679 0 -0.4792693)
(0 -1 -0)
(0.93694445 0 -0.34947831)
(-0 1 0)
(0.93694445 0 -0.34947831)
(0 -1 -0)
(0.97714995 0 -0.21255112)
(-0 1 0)
(0.97714995 0 -0.21255112)
(0 -1 0)
(0.99745244 0 -0.071334601)
(-0 1 0)
(0.99745244 0 -0.071334601)
(0 -1 0)
(0.99745244 -0 0.071334601)
(-0 1 0)
(0.99745244 0 0.071334601)
(0 -1 0)
(0.97714995 -0 0.21255112)
(-0 1 0)
(0.97714995 0 0.21255112)
(0 -1 0)
(0.93694445 -0 0.34947831)
(-0 1 0)
(0.93694445 0 0.34947831)
(0 -1 0)
(0.8776679 -0 0.4792693)
(-0 1 -0)
(0.8776679 0 0.4792693)
(0 -1 0)
(0.8005438 -0 0.59927424)
(-0 1 -0)
(0.8005438 0 0.59927424)
(0 -1 0)
(0.70713886 -0 0.7070747)
(-0 1 -0)
(0.70713886 0 0.7070747)
(0 -1 0)
(0.59926805 -0 0.80054844)
(0 1 -0)
(0.59926805 0 0.80054844)
(0 -1 0)
(0.47926449 -0 0.87767053)
(0 1 -0)
(0.47926449 0 0.87767053)
(0 -1 0)
(0.34944458 -0 0.93695704)
(0 1 -0)
(0.34944458 0 0.93695704)
(0 -1 0)
(0.2125101 -0 0.97715887)
(0 1 -0)
(0.2125101 0 0.97715887)
(0 -1 0)
(0.071353147 -0 0.99745112)
(0 1 -0)
(0.071353147 0 0.99745112)
(-0 -1 0)
(-0.071354365 0 0.99745103)
(0 1 -0)
(-0.071354365 0 0.99745103)
(0 -1 0)
(-0.21250654 0 0.97715964)
(0 1 0)
(-0.21250654 0 0.97715964)
(0 -1 0)
(-0.34945018 0 0.93695495)
(0 1 0)
(-0.34945018 0 0.93695495)
(0 -1 0)
(-0.47926449 0 0.87767053)
(0 1 0)
(-0.47926449 0 0.87767053)
(0 -1 0)
(-0.5992619 0 0.80055305)
(0 1 0)
(-0.5992619 0 0.80055305)
(0 -1 0)
(-0.70713458 0 0.70707898)
(0 1 0)
(-0.70713458 0 0.70707898)
(-0 -1 0)
(-0.80054586 0 0.5992715)
(0 1 0)
(-0.80054586 0 0.5992715)
(-0 -1 0)
(-0.8776697 0 0.47926601)
(0 1 0)
(-0.8776697 0 0.47926601)
(-0 -1 0)
(-0.93694866 0 0.34946705)
(0 1 0)
(-0.93694866 0 0.34946705)
(-0 -1 0)
(-0.97714639 0 0.21256746)
(0 1 0)
(-0.97714639 0 0.21256746)
(-0 -1 0)
(-0.99745244 0 0.071334601)
(0 1 0)
(-0.99745244 0 0.071334601)
(-0 -1 0)
(-0.99745244 0 -0.071334601)
(0 1 0)
(-0.99745244 0 -0.071334601)
(-0 -1 0)
(-0.97714639 0 -0.21256746)
(0 1 0)
(-0.97714639 0 -0.21256746)
(-0 -1 0)
(-0.93694866 0 -0.34946705)
(0 1 0)
(-0.93694866 0 -0.34946705)
(-0 -1 0)
(-0.8776697 0 -0.47926601)
(0 1 0)
(-0.8776697 0 -0.47926601)
(-0 -1 0)
(-0.80054586 0 -0.5992715)
(0 1 0)
(-0.80054586 0 -0.5992715)
(-0 -1 0)
(-0.70706614 0 -0.70714742)
(0 1 0)
(-0.70706614 0 -0.70714742)
(-0 -1 0)
(-0.59934962 0 -0.80048737)
(0 1 0)
(-0.59934962 0 -0.80048737)
(-0 -1 0)
(-0.47926449 0 -0.87767053)
(0 1 0)
(-0.47926449 0 -0.87767053)
(-0 -1 0)
(-0.34945018 0 -0.93695495)
(0 1 0)
(-0.34945018 0 -0.93695495)
(-0 -1 0)
(-0.21250654 0 -0.97715964)
(0 1 0)
(-0.21250654 0 -0.97715964)
(0 -1 0)
(-0.071354365 0 -0.99745103)
(0 1 0)
(-0.071354365 0 -0.99745103)
(0 -1 -0)
(0.071353147 0 -0.99745112)
(0 1 0)
(0 1 0)
(-0.96748338 0 -0.25293459)
(0 1 0)
(-0.99400145 0 -0.10936692)
(0 1 0)
(-0.999333 0 0.036517814)
(0 1 0)
(-0.98336484 0 0.18164137)
(0 1 0)
(-0.94643832 0 0.32288467)
(0 1 0)
(-0.88936531 0 0.45719727)
(0 1 0)
(-0.81325382 0 0.58190912)
(0 1 0)
(-0.71995171 0 0.69402416)
(0 1 0)
(-0.61115725 0 0.7915092)
(0 1 0)
(-0.48943237 0 0.87204126)
(0 1 0)
(-0.35719043 0 0.93403158)
(0 1 0)
(-0.21747001 0 0.976067)
(0 1 0)
(-0.072964855 0 0.99733451)
(0 1 0)
(0.072966136 -0 0.99733442)
(0 1 0)
(0.21746628 -0 0.97606783)
(0 1 0)
(0.3571919 -0 0.93403102)
(0 1 0)
(0.48943237 -0 0.87204126)
(0 1 0)
(0.61116151 -0 0.79150591)
(0 1 0)
(0.71995391 -0 0.69402188)
(0 1 0)
(0.81324757 -0 0.58191785)
(0 1 0)
(0.88936889 -0 0.45719031)
(0 1 0)
(0.94643428 -0 0.3228965)
(0 1 0)
(0.9833672 -0 0.1816286)
(0 1 0)
(0.99933268 -0 0.036526604)
(0 1 -0)
(0.99400193 0 -0.10936257)
(0 1 -0)
(0.9674823 0 -0.25293871)
(0 1 -0)
(0.92033678 0 -0.39112685)
(0 1 -0)
(0.85358565 0 -0.52095254)
(0 1 -0)
(0.76869357 0 -0.63961723)
(0 1 -0)
(0.6672675 0 -0.74481816)
(0 1 -0)
(0.55174542 0 -0.83401259)
(0 1 -0)
(0.42452757 0 -0.90541501)
(0 1 -0)
(0.28812296 0 -0.95759342)
(0 1 -0)
(0.14551122 0 -0.9893566)
(0 1 -0)
(0.036590043 0 -0.99933036)
(-0 1 0)
(-0.036589721 0 -0.99933037)
(-0 1 0)
(-0.14551122 0 -0.9893566)
(-0 1 0)
(-0.28812418 0 -0.95759306)
(-0 1 0)
(-0.4245208 0 -0.90541818)
(-0 1 0)
(-0.55174744 0 -0.83401125)
(-0 1 0)
(-0.66727187 0 -0.74481424)
(0 1 0)
(-0.76869573 0 -0.63961463)
(0 1 0)
(-0.85357586 0 -0.52096857)
(0 1 0)
(-0.92034312 0 -0.39111194)
(-0 -1 0)
(0.14551122 0 -0.9893566)
(-0 -1 0)
(0.28812296 0 -0.95759342)
(-0 -1 0)
(0.42452757 0 -0.90541501)
(-0 -1 0)
(0.55174542 0 -0.83401259)
(-0 -1 0)
(0.6672675 0 -0.74481816)
(0 -1 0)
(0.76869357 0 -0.63961723)
(0 -1 0)
(0.85358565 0 -0.52095254)
(0 -1 0)
(0.92033678 0 -0.39112685)
(0 -1 0)
(0.9674823 0 -0.25293871)
(0 -1 0)
(0.99400193 0 -0.10936257)
(0 -1 -0)
(0.99933268 -0 0.036526604)
(0 -1 -0)
(0.9833672 -0 0.1816286)
(0 -1 -0)
(0.94643428 -0 0.3228965)
(0 -1 -0)
(0.88936889 -0 0.45719031)
(0 -1 -0)
(0.81324757 -0 0.58191785)
(0 -1 -0)
(0.71995391 -0 0.69402188)
(0 -1 -0)
(0.61116151 -0 0.79150591)
(0 -1 -0)
(0.48943237 -0 0.87204126)
(0 -1 -0)
(0.3571919 -0 0.93403102)
(0 -1 -0)
(0.21746628 -0 0.97606783)
(0 -1 -0)
(0.072966136 -0 0.99733442)
(0 -1 0)
(-0.072964855 0 0.99733451)
(0 -1 0)
(-0.21747001 0 0.976067)
(0 -1 0)
(-0.35719043 0 0.93403158)
(0 -1 0)
(-0.48943237 0 0.87204126)
(0 -1 0)
(-0.61115725 0 0.7915092)
(0 -1 0)
(-0.71995171 0 0.69402416)
(0 -1 0)
(-0.81325382 0 0.58190912)
(0 -1 0)
(-0.88936531 0 0.45719727)
(0 -1 0)
(-0.94643832 0 0.32288467)
(0 -1 0)
(-0.98336484 0 0.18164137)
(0 -1 0)
(-0.999333 0 0.036517814)
(0 -1 0)
(-0.99400145 0 -0.10936692)
(0 -1 0)
(-0.96748338 0 -0.25293459)
(0 -1 0)
(-0.92034312 0 -0.39111194)
(0 -1 0)
(-0.85357586 0 -0.52096857)
(0 -1 0)
(-0.76869573 0 -0.63961463)
(0 -1 0)
(-0.66727187 0 -0.74481424)
(0 -1 0)
(-0.55174744 0 -0.83401125)
(0 -1 0)
(-0.4245208 0 -0.90541818)
(0 -1 0)
(-0.28812418 0 -0.95759306)
(0 -1 0)
(-0.14551122 0 -0.9893566)
(0 -1 0)
(0 0.00050781243 -0.99999987)
(0.071353147 0 -0.99745112)
(0 -1 -0)
(0.2125101 0 -0.97715887)
(0 1 0)
(0.2125101 0 -0.97715887)
(0 -1 -0)
(0.34944458 0 -0.93695704)
(-0 1 0)
(0.34944458 0 -0.93695704)
(0 -1 -0)
(0.47926449 0 -0.87767053)
(-0 1 0)
(0.47926449 0 -0.87767053)
(0 -1 -0)
(0.59935577 0 -0.80048276)
(-0 1 0)
(0.59935577 0 -0.80048276)
(0 -1 -0)
(0.70707042 0 -0.70714314)
(-0 1 0)
(0.70707042 0 -0.70714314)
(0 -1 -0)
(0.8005438 0 -0.59927424)
(-0 1 0)
(0.8005438 0 -0.59927424)
(0 -1 -0)
(0.8776679 0 -0.4792693)
(-0 1 0)
(0.8776679 0 -0.4792693)
(0 -1 -0)
(0.93694445 0 -0.34947831)
(-0 1 0)
(0.93694445 0 -0.34947831)
(0 -1 -0)
(0.97714995 0 -0.21255112)
(-0 1 0)
(0.97714995 0 -0.21255112)
(0 -1 0)
(0.99745244 0 -0.071334601)
(-0 1 0)
(0.99745244 0 -0.071334601)
(0 -1 0)
(0.99745244 -0 0.071334601)
(-0 1 0)
(0.99745244 0 0.071334601)
(0 -1 0)
(0.97714995 -0 0.21255112)
(-0 1 0)
(0.97714995 0 0.21255112)
(0 -1 0)
(0.93694445 -0 0.34947831)
(-0 1 0)
(0.93694445 0 0.34947831)
(0 -1 0)
(0.8776679 -0 0.4792693)
(-0 1 -0)
(0.8776679 0 0.4792693)
(0 -1 0)
(0.8005438 -0 0.59927424)
(-0 1 -0)
(0.8005438 0 0.59927424)
(0 -1 0)
(0.70713886 -0 0.7070747)
(-0 1 -0)
(0.70713886 0 0.7070747)
(0 -1 0)
(0.59926805 -0 0.80054844)
(0 1 -0)
(0.59926805 0 0.80054844)
(0 -1 0)
(0.47926449 -0 0.87767053)
(0 1 -0)
(0.47926449 0 0.87767053)
(0 -1 0)
(0.34944458 -0 0.93695704)
(0 1 -0)
(0.34944458 0 0.93695704)
(0 -1 0)
(0.2125101 -0 0.97715887)
(0 1 -0)
(0.2125101 0 0.97715887)
(0 -1 0)
(0.071353147 -0 0.99745112)
(0 1 -0)
(0.071353147 0 0.99745112)
(0 -1 0)
(-0.071354365 0 0.99745103)
(0 1 -0)
(-0.071354365 0 0.99745103)
(0 -1 0)
(-0.21250654 0 0.97715964)
(0 1 0)
(-0.21250654 0 0.97715964)
(0 -1 0)
(-0.34945018 0 0.93695495)
(0 1 0)
(-0.34945018 0 0.93695495)
(0 -1 0)
(-0.47926449 0 0.87767053)
(0 1 0)
(-0.47926449 0 0.87767053)
(0 -1 0)
(-0.5992619 0 0.80055305)
(0 1 0)
(-0.5992619 0 0.80055305)
(0 -1 0)
(-0.70713458 0 0.70707898)
(0 1 0)
(-0.70713458 0 0.70707898)
(-0 -1 0)
(-0.80054586 0 0.5992715)
(0 1 0)
(-0.80054586 0 0.5992715)
(-0 -1 0)
(-0.8776697 0 0.47926601)
(0 1 0)
(-0.8776697 0 0.47926601)
(-0 -1 0)
(-0.93694866 0 0.34946705)
(0 1 0)
(-0.93694866 0 0.34946705)
(-0 -1 0)
(-0.97714639 0 0.21256746)
(0 1 0)
(-0.97714639 0 0.21256746)
(-0 -1 0)
(-0.99745244 0 0.071334601)
(0 1 0)
(-0.99745244 0 0.071334601)
(-0 -1 0)
(-0.99745244 0 -0.071334601)
(0 1 0)
(-0.99745244 0 -0.071334601)
(-0 -1 0)
(-0.97714639 0 -0.21256746)
(0 1 0)
(-0.97714639 0 -0.21256746)
(-0 -1 0)
(-0.93694866 0 -0.34946705)
(0 1 0)
(-0.93694866 0 -0.34946705)
(-0 -1 0)
(-0.8776697 0 -0.47926601)
(0 1 0)
(-0.8776697 0 -0.47926601)
(-0 -1 0)
(-0.80054586 0 -0.5992715)
(0 1 0)
(-0.80054586 0 -0.5992715)
(-0 -1 0)
(-0.70706614 0 -0.70714742)
(0 1 0)
(-0.70706614 0 -0.70714742)
(-0 -1 0)
(-0.59934962 0 -0.80048737)
(0 1 0)
(-0.59934962 0 -0.80048737)
(-0 -1 0)
(-0.47926449 0 -0.87767053)
(0 1 0)
(-0.47926449 0 -0.87767053)
(-0 -1 0)
(-0.34945018 0 -0.93695495)
(0 1 0)
(-0.34945018 0 -0.93695495)
(-0 -1 0)
(-0.21250654 0 -0.97715964)
(0 1 0)
(-0.21250654 0 -0.97715964)
(0 -1 0)
(-0.071354365 0 -0.99745103)
(0 1 0)
(-0.071354365 0 -0.99745103)
(0 -1 -0)
(0.071353147 0 -0.99745112)
(0 1 0)
(0 1 0)
(-0.96748338 -0 -0.25293459)
(0 1 0)
(-0.99400145 -0 -0.10936692)
(0 1 0)
(-0.999333 0 0.036517814)
(0 1 0)
(-0.98336484 0 0.18164137)
(0 1 0)
(-0.94643832 0 0.32288467)
(0 1 0)
(-0.88936531 0 0.45719727)
(0 1 0)
(-0.81325382 0 0.58190912)
(0 1 0)
(-0.71995171 0 0.69402416)
(0 1 0)
(-0.61115725 0 0.7915092)
(0 1 0)
(-0.48943237 0 0.87204126)
(0 1 0)
(-0.35719043 0 0.93403158)
(0 1 0)
(-0.21747001 0 0.976067)
(0 1 0)
(-0.072964855 0 0.99733451)
(0 1 0)
(0.072966136 0 0.99733442)
(0 1 0)
(0.21746628 0 0.97606783)
(0 1 0)
(0.3571919 0 0.93403102)
(0 1 0)
(0.48943237 0 0.87204126)
(0 1 0)
(0.61116151 0 0.79150591)
(0 1 0)
(0.71995391 0 0.69402188)
(0 1 0)
(0.81324757 0 0.58191785)
(0 1 0)
(0.88936889 0 0.45719031)
(0 1 0)
(0.94643428 0 0.3228965)
(0 1 0)
(0.9833672 0 0.1816286)
(0 1 0)
(0.99933268 0 0.036526604)
(0 1 -0)
(0.99400193 0 -0.10936257)
(0 1 -0)
(0.9674823 0 -0.25293871)
(0 1 -0)
(0.92033678 0 -0.39112685)
(0 1 -0)
(0.85358565 0 -0.52095254)
(0 1 -0)
(0.76869357 0 -0.63961723)
(0 1 -0)
(0.6672675 0 -0.74481816)
(0 1 -0)
(0.55174542 0 -0.83401259)
(0 1 -0)
(0.42452757 0 -0.90541501)
(0 1 -0)
(0.28812296 0 -0.95759342)
(0 1 -0)
(0.14551122 0 -0.9893566)
(0 1 -0)
(0.036590043 0 -0.99933036)
(-0 1 0)
(-0.036589721 -0 -0.99933037)
(-0 1 0)
(-0.14551122 -0 -0.9893566)
(-0 1 0)
(-0.28812418 -0 -0.95759306)
(-0 1 0)
(-0.4245208 -0 -0.90541818)
(-0 1 0)
(-0.55174744 -0 -0.83401125)
(-0 1 0)
(-0.66727187 -0 -0.74481424)
(0 1 0)
(-0.76869573 -0 -0.63961463)
(0 1 0)
(-0.85357586 -0 -0.52096857)
(0 1 0)
(-0.92034312 -0 -0.39111194)
(0 -1 0)
(0.99400193 0 -0.10936257)
(0 -1 -0)
(0.99933268 0 0.036526604)
(0 -1 -0)
(0.9833672 0 0.1816286)
(0 -1 -0)
(0.94643428 0 0.3228965)
(0 -1 -0)
(0.88936889 0 0.45719031)
(0 -1 -0)
(0.81324757 0 0.58191785)
(0 -1 -0)
(0.71995391 0 0.69402188)
(0 -1 -0)
(0.61116151 0 0.79150591)
(0 -1 -0)
(0.48943237 0 0.87204126)
(0 -1 -0)
(0.3571919 0 0.93403102)
(0 -1 -0)
(0.21746628 0 0.97606783)
(0 -1 -0)
(0.072966136 0 0.99733442)
(0 -1 0)
(-0.072964855 0 0.99733451)
(0 -1 0)
(-0.21747001 0 0.976067)
(0 -1 0)
(-0.35719043 0 0.93403158)
(0 -1 0)
(-0.48943237 0 0.87204126)
(0 -1 0)
(-0.61115725 0 0.7915092)
(0 -1 0)
(-0.71995171 0 0.69402416)
(0 -1 0)
(-0.81325382 0 0.58190912)
(0 -1 0)
(-0.88936531 0 0.45719727)
(0 -1 0)
(-0.94643832 0 0.32288467)
(0 -1 0)
(-0.98336484 0 0.18164137)
(0 -1 0)
(-0.999333 0 0.036517814)
(0 -1 0)
(-0.99400145 -0 -0.10936692)
(0 -1 0)
(-0.96748338 -0 -0.25293459)
(0 -1 0)
(-0.92034312 -0 -0.39111194)
(0 -1 0)
(-0.85357586 -0 -0.52096857)
(0 -1 0)
(-0.76869573 -0 -0.63961463)
(0 -1 0)
(-0.66727187 -0 -0.74481424)
(0 -1 0)
(-0.55174744 -0 -0.83401125)
(0 -1 0)
(-0.4245208 -0 -0.90541818)
(0 -1 0)
(-0.28812418 -0 -0.95759306)
(0 -1 0)
(-0.14551122 -0 -0.9893566)
(0 -1 0)
(-0.036589721 -0 -0.99933037)
(-0 -1 0)
(0.036590043 0 -0.99933036)
(-0 -1 0)
(0.14551122 0 -0.9893566)
(-0 -1 0)
(0.28812296 0 -0.95759342)
(-0 -1 0)
(0.42452757 0 -0.90541501)
(-0 -1 0)
(0.55174542 0 -0.83401259)
(-0 -1 0)
(0.6672675 0 -0.74481816)
(0 -1 0)
(0.76869357 0 -0.63961723)
(0 -1 0)
(0.85358565 0 -0.52095254)
(0 -1 0)
(0.92033678 0 -0.39112685)
(0 -1 0)
(0.9674823 0 -0.25293871)
)

// normal volume types

702
(
0
0
0
0
0
0
0
0
0
0
0
0
0
0
0
0
0
0
0
0
0
0
0
0
0
0
0
0
0
0
0
0
0
0
0
0
0
0
0
0
0
0
0
0
0
0
0
0
0
0
0
0
0
0
0
0
0
0
0
0
0
0
0
0
0
0
0
0
0
0
0
0
0
0
0
0
0
0
0
0
0
0
0
0
0
0
0
0
0
0
0
0
0
0
0
0
0
0
0
0
0
0
0
0
0
0
0
0
0
0
0
0
0
0
0
0
0
0
0
0
0
0
0
0
0
0
0
0
0
0
0
0
0
0
0
0
0
0
0
0
0
0
0
0
0
0
0
0
0
0
0
0
0
0
0
0
0
0
0
0
0
0
0
0
0
0
0
0
0
0
0
0
0
0
0
0
0
0
0
0
0
0
0
0
0
0
0
0
0
0
0
0
0
0
0
0
0
0
0
0
0
0
0
0
0
0
0
0
0
0
0
0
0
0
0
0
0
0
0
0
0
0
0
0
0
0
0
0
0
0
0
0
0
0
0
0
0
0
0
0
0
0
0
0
0
0
0
0
0
0
0
0
0
0
0
0
0
0
0
0
0
0
0
0
0
0
0
0
0
0
0
0
0
0
0
0
0
0
0
0
0
0
0
0
0
0
0
0
0
0
0
0
0
0
0
0
0
0
0
0
0
0
0
0
0
0
0
0
0
0
0
0
0
0
0
0
0
0
0
0
0
0
0
0
0
0
0
0
0
0
0
0
0
0
0
0
0
0
0
0
0
0
0
0
0
0
0
0
0
0
0
0
0
0
0
0
0
0
0
0
0
0
0
0
0
0
0
0
0
0
0
0
0
0
0
0
0
0
0
0
0
0
0
0
0
0
0
0
0
0
0
0
0
0
0
0
0
0
0
0
0
0
0
0
0
0
0
0
0
0
0
0
0
0
0
0
0
0
0
0
0
0
0
0
0
0
0
0
0
0
0
0
0
0
0
0
0
0
0
0
0
0
0
0
0
0
0
0
0
0
0
0
0
0
0
0
0
0
0
0
0
0
0
0
0
0
0
0
0
0
0
0
0
0
0
0
0
0
0
0
0
0
0
0
0
0
0
0
0
0
0
0
0
0
0
0
0
0
0
0
0
0
0
0
0
0
0
0
0
0
0
0
0
0
0
0
0
0
0
0
0
0
0
0
0
0
0
0
0
0
0
0
0
0
0
0
0
0
0
0
0
0
0
0
0
0
0
0
0
0
0
0
0
0
0
0
0
0
0
0
0
0
0
0
0
0
0
0
0
0
0
0
0
0
0
0
0
0
0
0
0
0
0
0
0
0
0
0
0
0
0
0
0
0
0
0
0
0
0
0
0
0
0
0
0
0
0
0
0
0
0
0
0
0
0
0
0
0
0
0
0
0
0
0
0
0
0
0
0
0
0
0
0
0
0
0
0
0
0
0
0
0
0
0
0
0
0
0
0
0
0
0
0
0
0
0
0
0
0
0
0
0
0
0
0
0
0
0
0
0
0
0
0
0
0
0
0
0
0
0
0
0
0
0
0
0
0
0
0
0
0
0
0
0
0
0
0
0
0
0
0
0
)

// normalDirections

351
(
2(1 -1)
2(1 -1)
2(1 -1)
2(1 -1)
2(1 -1)
2(1 -1)
2(1 -1)
2(1 -1)
2(1 -1)
2(1 -1)
2(1 -1)
2(1 -1)
2(1 -1)
2(1 -1)
2(1 -1)
2(1 -1)
2(1 -1)
2(1 -1)
2(1 -1)
2(1 -1)
2(1 -1)
2(1 -1)
2(1 -1)
2(1 -1)
2(1 -1)
2(1 -1)
2(1 -1)
2(1 -1)
2(1 -1)
2(1 -1)
2(1 -1)
2(1 -1)
2(1 -1)
2(1 -1)
2(1 -1)
2(1 -1)
2(1 -1)
2(1 -1)
2(1 -1)
2(1 -1)
2(1 -1)
2(1 -1)
2(1 -1)
2(1 -1)
2(1 -1)
2(1 -1)
2(1 -1)
2(1 -1)
2(1 -1)
2(1 -1)
2(1 -1)
2(1 -1)
2(1 -1)
2(1 -1)
2(1 -1)
2(1 -1)
2(1 -1)
2(1 -1)
2(1 -1)
2(1 -1)
2(1 -1)
2(1 -1)
2(1 -1)
2(1 -1)
2(1 -1)
2(1 -1)
2(1 -1)
2(1 -1)
2(1 -1)
2(1 -1)
2(1 -1)
2(1 -1)
2(1 -1)
2(1 -1)
2(1 -1)
2(1 -1)
2(1 -1)
2(1 -1)
2(1 -1)
2(1 -1)
2(1 -1)
2(1 -1)
2(1 -1)
2(1 -1)
2(1 -1)
2(1 -1)
2(1 -1)
2(1 -1)
2(1 -1)
2(1 -1)
2(1 -1)
2(1 -1)
2(1 -1)
2(1 -1)
2(1 -1)
2(1 -1)
2(1 -1)
2(1 -1)
2(1 -1)
2(1 -1)
2(1 -1)
2(1 -1)
2(1 -1)
2(1 -1)
2(1 -1)
2(1 -1)
2(1 -1)
2(1 -1)
2(1 -1)
2(1 -1)
2(1 -1)
2(1 -1)
2(1 -1)
2(1 -1)
2(1 -1)
2(1 -1)
2(1 -1)
2(1 -1)
2(1 -1)
2(1 -1)
2(1 -1)
2(1 -1)
2(1 -1)
2(1 -1)
2(1 -1)
2(1 -1)
2(1 -1)
2(1 -1)
2(1 -1)
2(1 -1)
2(1 -1)
2(1 -1)
2(1 -1)
2(1 -1)
2(1 -1)
2(1 -1)
2(1 -1)
2(1 -1)
2(1 -1)
2(1 -1)