/*--------------------------------*- C++ -*----------------------------------*\
  =========                 |
  \\      /  F ield         | OpenFOAM: The Open Source CFD Toolbox
   \\    /   O peration     | Website:  https://openfoam.org
    \\  /    A nd           | Version:  9
     \\/     M anipulation  |
\*---------------------------------------------------------------------------*/
FoamFile
{
    format      ascii;
    class       extendedFeatureEdgeMesh;
    location    "constant/extendedFeatureEdgeMesh";
    object      vessel.extendedFeatureEdgeMesh;
}
// * * * * * * * * * * * * * * * * * * * * * * * * * * * * * * * * * * * * * //

// points

238
(
(574.9176 1348.283 1114.9919)
(573.46112 1348.3101 1131.05)
(574.9176 1348.283 1113.769)
(573.46112 1348.3101 1097.71)
(574.91949 148.3096 1114.38)
(573.46112 148.3096 1097.71)
(573.46112 148.3096 1131.05)
(569.13 1348.3101 1147.214)
(569.13 148.3096 1147.214)
(562.05792 1348.3101 1162.38)
(562.05792 148.3096 1162.38)
(552.45978 1348.3101 1176.088)
(552.45978 148.3096 1176.088)
(540.62708 1348.3101 1187.92)
(540.62708 148.3096 1187.92)
(526.91949 1348.3101 1197.519)
(526.91949 148.3096 1197.519)
(511.75339 1348.3101 1204.5909)
(511.75339 148.3096 1204.5909)
(495.58969 1348.3101 1208.922)
(495.58969 148.3096 1208.922)
(478.91949 1348.3101 1210.38)
(478.91949 148.3096 1210.38)
(462.2493 1348.3101 1208.922)
(462.2493 148.3096 1208.922)
(446.0856 1348.3101 1204.5909)
(446.0856 148.3096 1204.5909)
(430.91949 1348.3101 1197.519)
(430.91949 148.3096 1197.519)
(417.21191 1348.3101 1187.92)
(417.21191 148.3096 1187.92)
(405.37921 1348.3101 1176.088)
(405.37921 148.3096 1176.088)
(395.7811 1348.3101 1162.38)
(395.7811 148.3096 1162.38)
(388.70901 1348.3101 1147.214)
(388.70901 148.3096 1147.214)
(384.37799 1348.3101 1131.05)
(384.37799 148.3096 1131.05)
(382.91949 1348.3101 1114.38)
(382.91949 148.3096 1114.38)
(384.37799 1348.3101 1097.71)
(384.37799 148.3096 1097.71)
(388.70901 1348.3101 1081.546)
(388.70901 148.3096 1081.546)
(395.7811 1348.3101 1066.38)
(395.7811 148.3096 1066.38)
(405.37921 1348.3101 1052.672)
(405.37921 148.3096 1052.672)
(417.21191 1348.3101 1040.84)
(417.21191 148.3096 1040.84)
(430.91949 1348.3101 1031.2419)
(430.91949 148.3096 1031.2419)
(446.0856 1348.3101 1024.17)
(446.0856 148.3096 1024.17)
(462.2493 1348.3101 1019.839)
(462.2493 148.3096 1019.839)
(478.91949 1348.3101 1018.38)
(478.91949 148.3096 1018.38)
(495.58969 1348.3101 1019.839)
(495.58969 148.3096 1019.839)
(511.75339 1348.3101 1024.17)
(511.75339 148.3096 1024.17)
(526.91949 1348.3101 1031.2419)
(526.91949 148.3096 1031.2419)
(540.62708 1348.3101 1040.84)
(540.62708 148.3096 1040.84)
(552.45978 1348.3101 1052.672)
(552.45978 148.3096 1052.672)
(562.05792 1348.3101 1066.38)
(562.05792 148.3096 1066.38)
(569.13 1348.3101 1081.546)
(569.13 148.3096 1081.546)
(603.91949 1348.203 1113.165)
(603.91949 1347.887 1111.986)
(603.91949 1347.3719 1110.88)
(603.91949 1346.672 1109.881)
(603.91949 1345.809 1109.0179)
(603.91949 1344.8101 1108.318)
(603.91949 1343.704 1107.802)
(603.91949 1342.525 1107.486)
(603.91949 1341.3101 1107.38)
(603.91949 1340.094 1107.486)
(603.91949 1338.915 1107.802)
(603.91949 1337.8101 1108.318)
(603.91949 1336.8101 1109.0179)
(603.91949 1335.947 1109.881)
(603.91949 1335.2469 1110.88)
(603.91949 1334.7321 1111.986)
(603.91949 1334.416 1113.165)
(603.91949 1334.3101 1114.38)
(603.91949 1334.416 1115.5959)
(603.91949 1334.7321 1116.774)
(603.91949 1335.2469 1117.88)
(603.91949 1335.947 1118.88)
(603.91949 1336.8101 1119.7419)
(603.91949 1337.8101 1120.442)
(603.91949 1338.915 1120.958)
(603.91949 1340.094 1121.274)
(603.91949 1341.3101 1121.38)
(603.91949 1342.525 1121.274)
(603.91949 1343.704 1120.958)
(603.91949 1344.8101 1120.442)
(603.91949 1345.809 1119.7419)
(603.91949 1346.672 1118.88)
(603.91949 1347.3719 1117.88)
(603.91949 1347.887 1116.774)
(603.91949 1348.203 1115.5959)
(603.91949 1348.3101 1114.38)
(485.8132 0.80960971 1113.165)
(485.49741 0.80960971 1111.986)
(484.98169 0.80960971 1110.88)
(484.2818 0.80960971 1109.881)
(483.41901 0.80960971 1109.0179)
(482.41949 0.80960971 1108.318)
(481.31369 0.80960971 1107.802)
(480.13501 0.80960971 1107.486)
(478.91949 0.80960971 1107.38)
(477.70401 0.80960971 1107.486)
(476.52539 0.80960971 1107.802)
(475.41949 0.80960971 1108.318)
(474.42001 0.80960971 1109.0179)
(473.55719 0.80960971 1109.881)
(472.8573 0.80960971 1110.88)
(472.34171 0.80960971 1111.986)
(472.02591 0.80960971 1113.165)
(471.91949 0.80960971 1114.38)
(472.02591 0.80960971 1115.5959)
(472.34171 0.80960971 1116.774)
(472.8573 0.80960971 1117.88)
(473.55719 0.80960971 1118.88)
(474.42001 0.80960971 1119.7419)
(475.41949 0.80960971 1120.442)
(476.52539 0.80960971 1120.958)
(477.70401 0.80960971 1121.274)
(478.91949 0.80960971 1121.38)
(480.13501 0.80960971 1121.274)
(481.31369 0.80960971 1120.958)
(482.41949 0.80960971 1120.442)
(483.41901 0.80960971 1119.7419)
(484.2818 0.80960971 1118.88)
(484.98169 0.80960971 1117.88)
(485.49741 0.80960971 1116.774)
(485.8132 0.80960971 1115.5959)
(485.91949 0.80960971 1114.38)
(574.9118 1334.416 1115.5959)
(574.9024 1334.548 1116.192)
(574.88971 1334.7321 1116.774)
(574.8739 1334.965 1117.338)
(574.85571 1335.2469 1117.88)
(574.81403 1335.947 1118.88)
(574.76959 1336.8101 1119.7419)
(574.72791 1337.8101 1120.442)
(574.70959 1338.3521 1120.725)
(574.69391 1338.915 1120.958)
(574.68109 1339.4969 1121.141)
(574.67169 1340.094 1121.274)
(574.66589 1340.701 1121.354)
(574.664 1341.3101 1121.38)
(574.66589 1341.9189 1121.354)
(574.67169 1342.525 1121.274)
(574.68109 1343.123 1121.141)
(574.69391 1343.704 1120.958)
(574.70959 1344.267 1120.725)
(574.72791 1344.8101 1120.442)
(574.76959 1345.809 1119.7419)
(574.81403 1346.672 1118.88)
(574.85571 1347.3719 1117.88)
(574.8739 1347.653 1117.34)
(574.88971 1347.887 1116.774)
(574.90253 1348.072 1116.1899)
(574.9118 1348.203 1115.5959)
(574.9024 1348.0699 1112.566)
(574.88971 1347.887 1111.986)
(574.9118 1348.203 1113.165)
(574.87402 1347.6541 1111.423)
(574.85571 1347.3719 1110.88)
(574.81403 1346.672 1109.881)
(574.76959 1345.809 1109.0179)
(574.72791 1344.8101 1108.318)
(574.70972 1344.27 1108.037)
(574.69391 1343.704 1107.802)
(574.68109 1343.119 1107.618)
(574.67169 1342.525 1107.486)
(574.66589 1341.922 1107.407)
(574.664 1341.3101 1107.38)
(574.66589 1340.698 1107.407)
(574.67169 1340.094 1107.486)
(574.68109 1339.5 1107.618)
(574.69391 1338.915 1107.802)
(574.70972 1338.35 1108.037)
(574.72791 1337.8101 1108.318)
(574.76959 1336.8101 1109.0179)
(574.81403 1335.947 1109.881)
(574.85571 1335.2469 1110.88)
(574.8739 1334.965 1111.423)
(574.88971 1334.7321 1111.986)
(574.9024 1334.549 1112.567)
(574.9118 1334.416 1113.165)
(574.9176 1334.3361 1113.771)
(574.91949 1334.3101 1114.38)
(574.9176 1334.3361 1114.989)
(472.02731 25.809601 1115.595)
(472.34299 25.809601 1116.774)
(472.85861 25.809601 1117.879)
(473.55829 25.809601 1118.879)
(474.4209 25.809601 1119.741)
(475.4202 25.809601 1120.441)
(476.52591 25.809601 1120.957)
(477.70419 25.809601 1121.272)
(478.91949 25.809601 1121.379)
(480.1348 25.809601 1121.272)
(481.3132 25.809601 1120.957)
(482.41879 25.809601 1120.441)
(483.41809 25.809601 1119.741)
(484.2807 25.809601 1118.879)
(484.98041 25.809601 1117.879)
(485.496 25.809601 1116.774)
(485.81171 25.809601 1115.595)
(485.91809 25.809601 1114.38)
(485.81171 25.809601 1113.165)
(485.496 25.809601 1111.986)
(484.98041 25.809601 1110.881)
(484.2807 25.809601 1109.882)
(483.41809 25.809601 1109.019)
(482.41879 25.809601 1108.319)
(481.3132 25.809601 1107.804)
(480.1348 25.809601 1107.488)
(478.91949 25.809601 1107.382)
(477.70419 25.809601 1107.488)
(476.52591 25.809601 1107.804)
(475.4202 25.809601 1108.319)
(474.4209 25.809601 1109.019)
(473.55829 25.809601 1109.882)
(472.85861 25.809601 1110.881)
(472.34299 25.809601 1111.986)
(472.02731 25.809601 1113.165)
(471.92099 25.809601 1114.38)
)

// edges

238
(
(0 1)
(2 3)
(4 5)
(6 4)
(1 7)
(8 6)
(7 9)
(10 8)
(9 11)
(12 10)
(11 13)
(14 12)
(13 15)
(16 14)
(15 17)
(18 16)
(17 19)
(20 18)
(19 21)
(22 20)
(21 23)
(24 22)
(23 25)
(26 24)
(25 27)
(28 26)
(27 29)
(30 28)
(29 31)
(32 30)
(31 33)
(34 32)
(33 35)
(36 34)
(35 37)
(38 36)
(37 39)
(40 38)
(39 41)
(42 40)
(41 43)
(44 42)
(43 45)
(46 44)
(45 47)
(48 46)
(47 49)
(50 48)
(49 51)
(52 50)
(51 53)
(54 52)
(53 55)
(56 54)
(55 57)
(58 56)
(57 59)
(60 58)
(59 61)
(62 60)
(61 63)
(64 62)
(63 65)
(66 64)
(65 67)
(68 66)
(67 69)
(70 68)
(69 71)
(72 70)
(71 3)
(5 72)
(73 74)
(74 75)
(75 76)
(76 77)
(77 78)
(78 79)
(79 80)
(80 81)
(81 82)
(82 83)
(83 84)
(84 85)
(85 86)
(86 87)
(88 89)
(87 88)
(89 90)
(90 91)
(91 92)
(92 93)
(93 94)
(94 95)
(95 96)
(96 97)
(97 98)
(98 99)
(99 100)
(100 101)
(101 102)
(102 103)
(103 104)
(104 105)
(106 107)
(105 106)
(108 73)
(107 108)
(109 110)
(110 111)
(111 112)
(112 113)
(113 114)
(114 115)
(115 116)
(116 117)
(117 118)
(118 119)
(119 120)
(120 121)
(121 122)
(122 123)
(123 124)
(124 125)
(125 126)
(126 127)
(127 128)
(128 129)
(129 130)
(130 131)
(131 132)
(132 133)
(133 134)
(134 135)
(135 136)
(136 137)
(137 138)
(138 139)
(139 140)
(140 141)
(141 142)
(142 143)
(143 144)
(144 109)
(145 146)
(146 147)
(147 148)
(148 149)
(149 150)
(150 151)
(151 152)
(152 153)
(153 154)
(154 155)
(155 156)
(156 157)
(157 158)
(158 159)
(159 160)
(160 161)
(161 162)
(162 163)
(163 164)
(164 165)
(165 166)
(166 167)
(167 168)
(168 169)
(169 170)
(170 171)
(171 0)
(172 173)
(2 174)
(174 172)
(173 175)
(175 176)
(176 177)
(177 178)
(178 179)
(179 180)
(180 181)
(181 182)
(182 183)
(183 184)
(184 185)
(185 186)
(186 187)
(187 188)
(188 189)
(190 191)
(191 192)
(192 193)
(193 194)
(194 195)
(195 196)
(196 197)
(197 198)
(198 199)
(199 200)
(200 201)
(201 145)
(189 190)
(202 203)
(203 204)
(204 205)
(205 206)
(206 207)
(207 208)
(208 209)
(209 210)
(210 211)
(211 212)
(212 213)
(213 214)
(214 215)
(215 216)
(216 217)
(217 218)
(218 219)
(219 220)
(220 221)
(221 222)
(222 223)
(223 224)
(224 225)
(225 226)
(226 227)
(227 228)
(228 229)
(229 230)
(230 231)
(231 232)
(232 233)
(233 234)
(234 235)
(235 236)
(236 237)
(237 202)
)

// concaveStart mixedStart nonFeatureStart
0 0 0
// internalStart flatStart openStart multipleStart
144 238 238 238
// normals

474
(
(0.85311466 0.51608336 0.076507184)
(0.46427495 0.88475931 0.040616961)
(0.46487686 0.88444078 -0.040669619)
(0.85313024 0.51605808 -0.076503987)
(0.996195 -0.00026754844 -0.087151835)
(0.80699814 -0.58631872 -0.070600002)
(0.99619504 -0 0.087151838)
(0.80699843 -0.58631831 0.070600027)
(0.96592581 -0 0.2588191)
(0 1 0)
(0.96592581 0 0.2588191)
(0.78247748 -0.58631894 0.20966425)
(0.90630657 -0 0.42262088)
(0 1 0)
(0.90630657 0 0.42262088)
(0.73418196 -0.58631764 0.34235725)
(0.81916063 -0 0.57356417)
(0 1 0)
(0.81916063 0 0.57356417)
(0.66358556 -0.5863195 0.4646328)
(0.70708672 -0 0.70712684)
(0 1 0)
(0.70708672 0 0.70712684)
(0.57279785 -0.58631732 0.57283036)
(0.57361043 -0 0.81912824)
(0 1 0)
(0.57361043 0 0.81912824)
(0.46467019 -0.58631971 0.6635592)
(0.42260979 -0 0.90631174)
(0 1 0)
(0.42260979 0 0.90631174)
(0.34234757 -0.58631994 0.73418463)
(0.25881934 -0 0.96592575)
(0 1 0)
(0.25881934 0 0.96592575)
(0.20966465 -0.58631788 0.78247817)
(0.087129328 -0 0.99619701)
(0 1 0)
(0.087129328 0 0.99619701)
(0.070581653 -0.58632053 0.80699843)
(-0.087129328 0 0.99619701)
(0 1 -0)
(-0.087129328 0 0.99619701)
(-0.070581861 -0.58631723 0.80700081)
(-0.25881934 0 0.96592575)
(-0 1 0)
(-0.25881934 0 0.96592575)
(-0.20966401 -0.58632128 0.78247579)
(-0.42260979 0 0.90631174)
(0 1 0)
(-0.42260979 0 0.90631174)
(-0.34234805 -0.58631836 0.73418567)
(-0.57361043 0 0.81912824)
(0 1 0)
(-0.57361043 0 0.81912824)
(-0.46467063 -0.58631866 0.66355982)
(-0.70708672 0 0.70712684)
(-0 1 0)
(-0.70708672 0 0.70712684)
(-0.57279688 -0.58631923 0.57282938)
(-0.81916149 0 0.57356295)
(0 1 0)
(-0.81916149 0 0.57356295)
(-0.66358729 -0.58631775 0.46463254)
(-0.90630657 0 0.42262088)
(0 1 0)
(-0.90630657 0 0.42262088)
(-0.73418111 -0.58631893 0.34235685)
(-0.96592718 0 0.25881399)
(-0 1 0)
(-0.96592718 0 0.25881399)
(-0.78247947 -0.58631767 0.20966036)
(-0.99619441 0 0.087159077)
(0 1 0)
(-0.99619441 0 0.087159077)
(-0.80699774 -0.58631857 0.070605876)
(-0.99619441 0 -0.087159077)
(0 1 0)
(-0.99619441 0 -0.087159077)
(-0.80699781 -0.58631846 -0.070605882)
(-0.96592718 0 -0.25881399)
(0 1 -0)
(-0.96592718 0 -0.25881399)
(-0.78247873 -0.58631873 -0.20966016)
(-0.90630657 0 -0.42262088)
(0 1 0)
(-0.90630657 0 -0.42262088)
(-0.73418204 -0.58631752 -0.34235729)
(-0.81916149 0 -0.57356295)
(0 1 0)
(-0.81916149 0 -0.57356295)
(-0.66358622 -0.58631955 -0.46463179)
(-0.70708672 0 -0.70712684)
(0 1 -0)
(-0.70708672 0 -0.70712684)
(-0.57279632 -0.58632032 -0.57282882)
(-0.57357127 0 -0.81915566)
(0 1 0)
(-0.57357127 0 -0.81915566)
(-0.46463914 -0.5863181 -0.66358237)
(-0.42260979 0 -0.90631174)
(0 1 0)
(-0.42260979 0 -0.90631174)
(-0.34234874 -0.5863161 -0.73418715)
(-0.25881934 0 -0.96592575)
(0 1 -0)
(-0.25881934 0 -0.96592575)
(-0.20966462 -0.58631802 -0.78247807)
(-0.087187243 0 -0.99619194)
(0 1 0)
(-0.087187243 0 -0.99619194)
(-0.070628711 -0.58631826 -0.80699596)
(0.087187243 0 -0.99619194)
(0 1 0)
(0.087187243 0 -0.99619194)
(0.070628634 -0.58631949 -0.80699507)
(0.25881934 0 -0.96592575)
(0 1 0)
(0.25881934 0 -0.96592575)
(0.20966478 -0.58631719 -0.78247865)
(0.42260979 0 -0.90631174)
(0 1 0)
(0.42260979 0 -0.90631174)
(0.34234812 -0.58631813 -0.73418582)
(0.57357127 0 -0.81915566)
(0 1 0)
(0.57357127 0 -0.81915566)
(0.46463968 -0.58631679 -0.66358314)
(0.70708672 0 -0.70712684)
(0 1 0)
(0.70708672 0 -0.70712684)
(0.57279688 -0.58631923 -0.57282938)
(0.81916063 0 -0.57356417)
(0 1 0)
(0.81916063 0 -0.57356417)
(0.66358513 -0.58632024 -0.4646325)
(0.90630657 0 -0.42262088)
(0 1 0)
(0.90630657 0 -0.42262088)
(0.73418111 -0.58631893 -0.34235685)
(0.96592581 0 -0.2588191)
(0 1 0)
(0.96592581 0 -0.2588191)
(0.78247815 -0.58631798 -0.20966443)
(0.00091537549 0.96590345 -0.25890092)
(1 0 -0)
(0.00091317471 0.90652755 -0.42214567)
(1 0 0)
(0 0.81898738 -0.57381154)
(1 0 0)
(0 0.70710678 -0.70710678)
(1 0 -0)
(0 0.57385857 -0.81895442)
(1 0 0)
(0.00090205884 0.42276483 -0.90623898)
(1 0 0)
(0.00089692896 0.25892594 -0.96589676)
(1 0 -0)
(0.00089868425 0.086880091 -0.99621837)
(1 0 0)
(0.00089741068 -0.086802192 -0.99622516)
(1 0 0)
(0.00089692896 -0.25892594 -0.96589676)
(1 -0 0)
(0.0008958968 -0.42310995 -0.9060779)
(1 0 0)
(0 -0.5734355 -0.81925071)
(1 0 0)
(0 -0.70710678 -0.70710678)
(1 -0 0)
(0 -0.81894035 -0.57387865)
(1 0 0)
(-0 -0.96590385 -0.25890103)
(1 -0 0)
(-0 -0.90656622 -0.42206361)
(1 0 0)
(0 -0.99621877 -0.086880126)
(1 0 0)
(0.00092979302 -0.99622438 0.086810838)
(1 0 0)
(0.00093016321 -0.96584975 0.25910113)
(1 0 0)
(0.00092546042 -0.90656583 0.42206343)
(1 0 0)
(0 -0.81920373 0.57350261)
(1 0 0)
(0 -0.70665628 0.70755699)
(1 0 0)
(0 -0.57350261 0.81920373)
(1 0 0)
(0.00092641856 -0.42310994 0.90607788)
(1 0 0)
(0.00089169341 -0.25892594 0.96589677)
(1 0 0)
(0.00092161202 -0.086802191 0.99622514)
(1 0 -0)
(0.00092287723 0.086880089 0.99621835)
(1 0 0)
(0.00090034153 0.25892594 0.96589676)
(1 0 0)
(0.00091848175 0.42276483 0.90623896)
(1 0 0)
(-0 0.57392568 0.81890739)
(1 0 0)
(-0 0.70665628 0.70755699)
(1 0 0)
(-0 0.81925071 0.5734355)
(1 0 0)
(0 0.96585017 0.25910124)
(1 0 0)
(0 0.90652793 0.42214584)
(1 0 0)
(0.00091827028 0.99613999 -0.087774015)
(1 -0 0)
(0 0.99614657 0.0877041)
(1 0 0)
(0.96595385 5.7778022e-05 -0.25871442)
(0 -1 0)
(0.90630769 5.0891319e-05 -0.42261848)
(0 -1 0)
(0.81901089 6.4403529e-05 -0.57377797)
(0 -1 0)
(0.7072068 5.8695896e-05 -0.70700674)
(0 -1 0)
(0.57362347 5.7003184e-05 -0.81911911)
(0 -1 0)
(0.42285124 4.7270464e-05 -0.90619911)
(0 -1 0)
(0.25898233 8.0517813e-05 -0.96588206)
(0 -1 0)
(0.086841159 8.3436303e-05 -0.99622217)
(0 -1 0)
(-0.086843323 7.782987e-05 -0.99622198)
(0 -1 -0)
(-0.25899484 8.2072442e-05 -0.9658787)
(0 -1 0)
(-0.42282249 7.9572274e-05 -0.90621252)
(0 -1 0)
(-0.57363522 4.8102017e-05 -0.81911088)
(0 -1 0)
(-0.7071943 5.6105156e-05 -0.70701925)
(0 -1 0)
(-0.81901089 5.8404912e-05 -0.57377797)
(0 -1 0)
(-0.906346 6.4079661e-05 -0.4225363)
(0 -1 0)
(-0.96595385 4.9524019e-05 -0.25871442)
(0 -1 0)
(-0.99618622 5.5938211e-05 -0.087252621)
(-0 -1 0)
(-0.9961923 5.9586719e-05 0.087183078)
(0 -1 0)
(-0.96590024 6.4351433e-05 0.25891451)
(0 -1 -0)
(-0.906346 4.6467951e-05 0.4225363)
(0 -1 0)
(-0.8192742 6.5402431e-05 0.57340193)
(0 -1 0)
(-0.70674386 5.8693628e-05 0.70746952)
(0 -1 -0)
(-0.57370234 5.2303988e-05 0.81906387)
(0 -1 0)
(-0.42282249 4.727018e-05 0.90621252)
(0 -1 0)
(-0.25899484 4.3104301e-05 0.9658787)
(0 -1 -0)
(-0.086843323 8.3330296e-05 0.99622198)
(0 -1 0)
(0.086841159 3.8914942e-05 0.99622217)
(0 -1 0)
(0.25898233 8.238877e-05 0.96588206)
(-0 -1 0)
(0.42285124 4.3657232e-05 0.90619911)
(0 -1 0)
(0.57369059 4.8102057e-05 0.8190721)
(0 -1 0)
(0.70675637 5.351725e-05 0.70745702)
(-0 -1 0)
(0.8192742 5.8401795e-05 0.57340193)
(0 -1 0)
(0.90630768 6.2974527e-05 0.42261848)
(0 -1 0)
(0.96590024 5.4237582e-05 0.25891451)
(-0 -1 0)
(0.99620099 6.2988952e-05 0.087083828)
(0 -1 0)
(0.99619491 5.5938699e-05 -0.087153292)
(0 -1 0)
(0.99987161 -0.0010145481 0.015991571)
(0 -0.97636082 0.21614705)
(0.99975525 -0.00093785447 0.022103362)
(0 -0.9534496 0.30155243)
(0.99959697 -0.00086219744 0.028375082)
(0 -0.92427984 0.38171557)
(0.99942307 -0.00079752346 0.033954126)
(0 -0.88711864 0.46154146)
(0.99911128 -0.00070627918 0.042144411)
(0 -0.81920373 0.57350261)
(0.99864245 -0.00060387673 0.052085436)
(0 -0.70665628 0.70755699)
(0.99818678 -0.00052625963 0.060190393)
(0 -0.57350261 0.81920373)
(0.98287622 -0.058090007 0.17487104)
(0 -0.46279798 0.88646378)
(0.98731216 -0.036462129 0.15454843)
(0 -0.38245206 0.92397533)
(0.98956916 -0.022925738 0.14222265)
(0 -0.29997229 0.95394791)
(0.99076311 -0.014450622 0.13483188)
(0 -0.21752206 0.97605541)
(0.99159982 -0.0075357393 0.129124)
(0 -0.13058344 0.99143732)
(0.99214798 -0.0022563984 0.12504913)
(0 -0.042655069 0.99908986)
(0.99253671 0.002122353 0.12192777)
(-0 0.042663605 0.99908949)
(0.992844 0.0062341178 0.1192557)
(0 0.13079025 0.99141006)
(0.99309755 0.010385166 0.11683068)
(-0 0.21718362 0.97613077)
(0.99328306 0.014253669 0.11482851)
(0 0.30043108 0.95380353)
(0.99344833 0.018968023 0.11269703)
(-0 0.38245206 0.92397533)
(0.99356274 0.024165389 0.11067568)
(0 0.46206182 0.88684772)
(0.99362994 0.033862573 0.10748423)
(0 0.57392568 0.81890739)
(0.99327251 0.052131732 0.10340214)
(0 0.70665628 0.70755699)
(0.99164417 0.082558678 0.099125725)
(0 0.81925071 0.5734355)
(0.98804421 0.12060697 0.096034318)
(0 0.88709201 0.46159263)
(0.98267585 0.15996306 0.093594845)
(0.0018347239 0.92409186 0.38216602)
(0.97148302 0.21906633 0.090723151)
(0 0.95329921 0.3020275)
(0.9420779 0.32413095 0.086187922)
(0.0018926843 0.97653195 0.21536429)
(0 0.9913517 0.13123188)
(0.97126442 0.22005456 -0.090671989)
(0 0.95367664 -0.3008336)
(0 0.9913517 -0.13123188)
(0.94287481 0.3217825 -0.086273545)
(0 0.97620578 -0.2168462)
(0.98266255 0.160047 -0.093591026)
(0 0.92404612 -0.38228101)
(0.98803432 0.12069378 -0.096027086)
(0 0.8873768 -0.46104492)
(0.99165356 0.082433922 -0.099135606)
(0 0.81898738 -0.57381154)
(0.99326923 0.052240262 -0.10337888)
(0 0.70710678 -0.70710678)
(0.99362993 0.033851904 -0.10748775)
(0 0.57385857 -0.81895442)
(0.99356233 0.024131982 -0.11068665)
(0 0.46159263 -0.88709201)
(0.99345029 0.019028889 -0.11266949)
(0 0.38341293 -0.92357703)
(0.99328616 0.014335515 -0.11479153)
(0 0.29999741 -0.95394002)
(0.99309127 0.0102776 -0.11689356)
(0 0.2170579 -0.97615873)
(0.99283441 0.0060841036 -0.11934329)
(0 0.12986259 -0.991532)
(0.99255193 0.0023006924 -0.12180057)
(0 0.0440426 -0.99902965)
(0.99213006 -0.0024508285 -0.12518765)
(0 -0.044033833 -0.99903004)
(0.99162186 -0.0073441331 -0.1289657)
(0 -0.12965616 -0.99155901)
(0.99078604 -0.01426964 -0.13468262)
(0 -0.2170579 -0.97615873)
(0.98954353 -0.023091744 -0.14237406)
(0 -0.29999741 -0.95394002)
(0.99785202 -0.00047849239 -0.065506656)
(0 -0.46167475 -0.88704928)
(0.99818615 -0.00052616687 -0.06020072)
(0 -0.5734355 -0.81925071)
(0.99867179 -0.00010649352 -0.051523259)
(0 -0.70710678 -0.70710678)
(0.9991285 -6.9391975e-05 -0.041740023)
(0 -0.81894035 -0.57387865)
(0.99943862 -4.5085704e-05 -0.033502811)
(-0 -0.88745841 -0.4608878)
(0.99960565 -3.1568434e-05 -0.028080912)
(0.0018236568 -0.92402649 -0.38232409)
(0.99976127 -1.8990382e-05 -0.021849508)
(-0 -0.95376419 -0.30055594)
(0.99987647 -9.6171606e-06 -0.01571769)
(0.001814117 -0.97616535 -0.21702057)
(0.99995422 -3.3182552e-06 -0.0095688958)
(0 -0.99140664 -0.13081615)
(0.99999517 0 -0.00310682)
(0.0018630691 -0.99908788 -0.042660773)
(0.99999431 -0.0011852705 0.0031574212)
(0 -0.99908986 0.042655069)
(0.99995238 -0.0010966538 0.0096975153)
(0 -0.99143392 0.13060926)
(0.9976709 -0.00045484483 -0.068209796)
(0 -0.38397794 -0.92334227)
(-0.78251589 -0.58632545 0.20950265)
(-0.96597884 4.95253e-05 0.25862111)
(-0.73409626 -0.58630849 0.34255663)
(-0.90619337 6.4084432e-05 0.42286354)
(-0.66373736 -0.58633097 0.46440144)
(-0.81935642 5.8400818e-05 0.57328444)
(-0.57259729 -0.58630514 0.5730433)
(-0.70683144 5.2654238e-05 0.70738201)
(-0.464799 -0.58632637 0.66346309)
(-0.57377285 4.8102115e-05 0.81901448)
(-0.34256338 -0.58632996 0.73407596)
(-0.42287999 4.417348e-05 0.90618569)
(-0.20918564 -0.58629717 0.78262187)
(-0.25822326 8.2083937e-05 0.96608527)
(-0.071083113 -0.58634143 0.80693923)
(-0.087749993 3.8911831e-05 0.99614253)
(0.071085987 -0.58629619 0.80697185)
(0.087749993 8.3437458e-05 0.99614253)
(0.20915688 -0.58634284 0.78259534)
(0.25819829 4.2780917e-05 0.96609194)
(0.34260157 -0.58630665 0.73407675)
(0.42291833 4.7271124e-05 0.9061678)
(0.46480498 -0.58631197 0.66347163)
(0.57377285 5.3004961e-05 0.81901448)
(0.57258388 -0.58633135 0.57302988)
(0.70683144 5.8694059e-05 0.70738201)
(0.66374208 -0.58630698 0.464425)
(0.81934467 6.440202e-05 0.57330123)
(0.73409177 -0.58632717 0.34253426)
(0.90620296 5.0885438e-05 0.42284299)
(0.78252031 -0.58631189 0.20952409)
(0.96597259 6.7882445e-05 0.25864444)
(0.80699091 -0.58632128 0.070661366)
(0.99618839 5.5938333e-05 0.087227789)
(0.8069949 -0.58631575 -0.070661716)
(0.99618839 5.9586485e-05 -0.087227789)
(0.78251113 -0.58632502 -0.20952163)
(0.96597259 5.4241644e-05 -0.25864444)
(0.73410345 -0.58630937 -0.34253971)
(0.90620296 6.2977928e-05 -0.42284299)
(0.66352416 -0.58631485 -0.46472635)
(0.81908143 5.8404078e-05 -0.57367727)
(0.57291034 -0.58632722 -0.57270772)
(0.70723183 5.6968155e-05 -0.70698171)
(0.464799 -0.58632637 -0.66346309)
(0.57377285 4.8102115e-05 -0.81901448)
(0.34206995 -0.5863031 -0.73432746)
(0.42226074 7.9065622e-05 -0.90647441)
(0.20976587 -0.58632227 -0.78244775)
(0.2589453 8.2389277e-05 -0.96589198)
(0.070441569 -0.58631043 -0.80701801)
(0.086955617 7.7829104e-05 -0.99621218)
(-0.070440506 -0.58632731 -0.80700584)
(-0.086955617 8.3330306e-05 -0.99621218)
(-0.20978808 -0.58631192 -0.78244955)
(-0.25897033 8.0833956e-05 -0.96588527)
(-0.34202987 -0.58633271 -0.73432249)
(-0.42222244 4.726426e-05 -0.90649226)
(-0.46480642 -0.5863085 -0.66347369)
(-0.57377285 5.630365e-05 -0.81901448)
(-0.57291797 -0.58631232 -0.57271535)
(-0.70723183 5.8696018e-05 -0.70698171)
(-0.66352815 -0.58632419 -0.46470888)
(-0.81909319 6.5403029e-05 -0.57366048)
(-0.7340835 -0.58632793 -0.34255068)
(-0.90619337 4.6460126e-05 -0.42286354)
(-0.78252602 -0.58631094 -0.20950536)
(-0.96597884 5.4241995e-05 -0.25862111)
(-0.80699592 -0.58631921 -0.070621265)
(-0.99619274 5.9586745e-05 -0.087178125)
(-0.80699693 -0.58631782 0.070621353)
(-0.99619274 5.9343974e-05 0.087178125)
)

// normal volume types

474
(
0
0
0
0
0
0
0
0
0
0
0
0
0
0
0
0
0
0
0
0
0
0
0
0
0
0
0
0
0
0
0
0
0
0
0
0
0
0
0
0
0
0
0
0
0
0
0
0
0
0
0
0
0
0
0
0
0
0
0
0
0
0
0
0
0
0
0
0
0
0
0
0
0
0
0
0
0
0
0
0
0
0
0
0
0
0
0
0
0
0
0
0
0
0
0
0
0
0
0
0
0
0
0
0
0
0
0
0
0
0
0
0
0
0
0
0
0
0
0
0
0
0
0
0
0
0
0
0
0
0
0
0
0
0
0
0
0
0
0
0
0
0
0
0
0
0
0
0
0
0
0
0
0
0
0
0
0
0
0
0
0
0
0
0
0
0
0
0
0
0
0
0
0
0
0
0
0
0
0
0
0
0
0
0
0
0
0
0
0
0
0
0
0
0
0
0
0
0
0
0
0
0
0
0
0
0
0
0
0
0
0
0
0
0
0
0
0
0
0
0
0
0
0
0
0
0
0
0
0
0
0
0
0
0
0
0
0
0
0
0
0
0
0
0
0
0
0
0
0
0
0
0
0
0
0
0
0
0
0
0
0
0
0
0
0
0
0
0
0
0
0
0
0
0
0
0
0
0
0
0
0
0
0
0
0
0
0
0
0
0
0
0
0
0
0
0
0
0
0
0
0
0
0
0
0
0
0
0
0
0
0
0
0
0
0
0
0
0
0
0
0
0
0
0
0
0
0
0
0
0
0
0
0
0
0
0
0
0
0
0
0
0
0
0
0
0
0
0
0
0
0
0
0
0
0
0
0
0
0
0
0
0
0
0
0
0
0
0
0
0
0
0
0
0
0
0
0
0
0
0
0
0
0
0
0
0
0
0
0
0
0
0
0
0
0
0
0
0
0
0
0
0
0
0
0
0
0
0
0
0
0
0
0
0
0
0
0
0
0
0
0
0
0
0
0
0
0
0
0
0
0
0
0
0
0
0
0
0
0
0
0
0
0
0
0
0
0
0
0
0
0
0
0
0
0
0
0
0
0
0
0
0
0
0
0
0
0
0
0
0
0
0
0
0
)

// normalDirections

238
(
2(1 -1)
2(1 -1)
2(1 -1)
2(1 -1)
2(1 -1)
2(1 -1)
2(1 -1)
2(1 -1)
2(1 -1)
2(1 -1)
2(1 -1)
2(1 -1)
2(1 -1)
2(1 -1)
2(1 -1)
2(1 -1)
2(1 -1)
2(1 -1)
2(1 -1)
2(1 -1)
2(1 -1)
2(1 -1)
2(1 -1)
2(1 -1)
2(1 -1)
2(1 -1)
2(1 -1)
2(1 -1)
2(1 -1)
2(1 -1)
2(1 -1)
2(1 -1)
2(1 -1)
2(1 -1)
2(1 -1)
2(1 -1)
2(1 -1)
2(1 -1)
2(1 -1)
2(1 -1)
2(1 -1)
2(1 -1)
2(1 -1)
2(1 -1)
2(1 -1)
2(1 -1)
2(1 -1)
2(1 -1)
2(1 -1)
2(1 -1)
2(1 -1)
2(1 -1)
2(1 -1)
2(1 -1)
2(1 -1)
2(1 -1)
2(1 -1)
2(1 -1)
2(1 -1)
2(1 -1)
2(1 -1)
2(1 -1)
2(1 -1)
2(1 -1)
2(1 -1)
2(1 -1)
2(1 -1)
2(1 -1)
2(1 -1)
2(1 -1)
2(1 -1)
2(1 -1)
2(1 -1)
2(1 -1)
2(1 -1)
2(1 -1)
2(1 -1)
2(1 -1)
2(1 -1)
2(1 -1)
2(1 -1)
2(1 -1)
2(1 -1)
2(1 -1)
2(1 -1)
2(1 -1)
2(1 -1)
2(1 -1)
2(1 -1)
2(1 -1)
2(1 -1)
2(1 -1)
2(1 -1)
2(1 -1)
2(1 -1)
2(1 -1)
2(1 -1)
2(1 -1)
2(1 -1)
2(1 -1)
2(1 -1)
2(1 -1)
2(1 -1)
2(1 -1)
2(1 -1)
2(1 -1)
2(1 -1)
2(1 -1)
2(1 -1)
2(1 -1)
2(1 -1)
2(1 -1)
2(1 -1)
2(1 -1)
2(1 -1)
2(1 -1)
2(1 -1)
2(1 -1)
2(1 -1)
2(1 -1)
2(1 -1)
2(1 -1)
2(1 -1)
2(1 -1)
2(1 -1)
2(1 -1)
2(1 -1)
2(1 -1)
2(1 -1)
2(1 -1)
2(1 -1)
2(1 -1)
2(1 -1)
2(1 -1)
2(1 -1)
2(1 -1)
2(1 -1)
2(1 -1)
2(1 -1)
2(1 -1)
2(1 -1)
2(1 -1)
2(1 -1)
2(1 -1)
2(1 -1)
2(1 -1)
2(1 -1)
2(1 -1)
2(1 -1)
2(1 -1)
2(1 -1)
2(1 -1)
2(1 -1)
2(1 -1)
2(1 -1)
2(1 -1)
2(1 -1)
2(1 -1)
2(1 -1)
2(1 -1)
2(1 -1)
2(1 -1)
2(1 -1)
2(1 -1)
2(1 -1)
2(1 -1)
2(1 -1)
2(1 -1)
2(1 -1)
2(1 -1)
2(1 -1)
2(1 -1)
2(1 -1)
2(1 -1)
2(1 -1)
2(1 -1)
2(1 -1)
2(1 -1)
2(1 -1)
2(1 -1)
2(1 -1)
2(1 -1)
2(1 -1)
2(1 -1)
2(1 -1)
2(1 -1)
2(1 -1)
2(1 -1)
2(1 -1)
2(1 -1)
2(1 -1)
2(1 -1)
2(1 -1)
2(1 -1)
2(1 -1)
2(1 -1)
2(1 -1)
2(1 -1)
2(1 -1)
2(1 -1)
2(1 -1)
2(1 -1)
2(1 -1)
2(1 -1)
2(1 -1)
2(1 -1)
2(1 -1)
2(1 -1)
2(1 -1)
2(1 -1)
2(1 -1)
2(1 -1)
2(1 -1)
2(1 -1)
2(1 -1)
2(1 -1)
2(1 -1)
2(1 -1)
2(1 -1)
2(1 -1)
2(1 -1)
2(1 -1)
2(1 -1)
2(1 -1)
2(1 -1)
2(1 -1)
2(1 -1)
2(1 -1)
2(1 -1)
2(1 -1)
2(1 -1)
2(1 -1)
2(1 -1)
2(1 -1)
2(1 -1)
2(1 -1)
2(1 -1)
2(1 -1)
)

// edgeNormals

238
(
2(0 1)
2(2 3)
2(4 5)
2(6 7)
2(8 9)
2(10 11)
2(12 13)
2(14 15)
2(16 17)
2(18 19)
2(20 21)
2(22 23)
2(24 25)
2(26 27)
2(28 29)
2(30 31)
2(32 33)
2(34 35)
2(36 37)
2(38 39)
2(40 41)
2(42 43)
2(44 45)
2(46 47)
2(48 49)
2(50 51)
2(52 53)
2(54 55)
2(56 57)
2(58 59)
2(60 61)
2(62 63)
2(64 65)
2(66 67)
2(68 69)
2(70 71)
2(72 73)
2(74 75)
2(76 77)
2(78 79)
2(80 81)
2(82 83)
2(84 85)
2(86 87)
2(88 89)
2(90 91)
2(92 93)
2(94 95)
2(96 97)
2(98 99)
2(100 101)
2(102 103)
2(104 105)
2(106 107)
2(108 109)
2(110 111)
2(112 113)
2(114 115)
2(116 117)
2(118 119)
2(120 121)
2(122 123)
2(124 125)
2(126 127)
2(128 129)
2(130 131)
2(132 133)
2(134 135)
2(136 137)
2(138 139)
2(140 141)
2(142 143)
2(144 145)
2(146 147)
2(148 149)
2(150 151)
2(152 153)
2(154 155)
2(156 157)
2(158 159)
2(160 161)
2(162 163)
2(164 165)
2(166 167)
2(168 169)
2(170 171)
2(172 173)
2(174 175)
2(176 177)
2(178 179)
2(180 181)
2(182 183)
2(184 185)
2(186 187)
2(188 189)
2(190 191)
2(192 193)
2(194 195)
2(196 197)
2(198 199)
2(200 201)
2(202 203)
2(204 205)
2(206 207)
2(208 209)
2(210 211)
2(212 213)
2(214 215)
2(216 217)
2(218 219)
2(220 221)
2(222 223)
2(224 225)
2(226 227)
2(228 229)
2(230 231)
2(232 233)
2(234 235)
2(236 237)
2(238 239)
2(240 241)
2(242 243)
2(244 245)
2(246 247)
2(248 249)
2(250 251)
2(252 253)
2(254 255)
2(256 257)
2(258 259)
2(260 261)
2(262 263)
2(264 265)
2(266 267)
2(268 269)
2(270 271)
2(272 273)
2(274 275)
2(276 277)
2(278 279)
2(280 281)
2(282 283)
2(284 285)
2(286 287)
2(288 289)
2(290 291)
2(292 293)
2(294 295)
2(296 297)
2(298 299)
2(300 301)
2(302 303)
2(304 305)
2(306 307)
2(308 309)
2(310 311)
2(312 313)
2(314 315)
2(316 317)
2(318 319)
2(320 321)
2(322 323)
2(324 325)
2(326 327)
2(328 329)
2(330 331)
2(332 333)
2(334 335)
2(336 337)
2(338 339)
2(0 340)
2(341 342)
2(3 343)
2(344 345)
2(346 347)
2(348 349)
2(350 351)
2(352 353)
2(354 355)
2(356 357)
2(358 359)
2(360 361)
2(362 363)
2(364 365)
2(366 367)
2(368 369)
2(370 371)
2(372 373)
2(374 375)
2(376 377)
2(378 379)
2(380 381)
2(382 383)
2(384 385)
2(386 387)
2(388 389)
2(390 391)
2(392 393)
2(394 395)
2(396 397)
2(398 399)
2(400 401)
2(402 403)
2(404 405)
2(406 407)
2(408 409)
2(410 411)
2(412 413)
2(414 415)
2(416 417)
2(418 419)
2(420 421)
2(422 423)
2(424 425)
2(426 427)
2(428 429)
2(430 431)
2(432 433)
2(434 435)
2(436 437)
2(438 439)
2(440 441)
2(442 443)
2(444 445)
2(446 447)
2(448 449)
2(450 451)
2(452 453)
2(454 455)
2(456 457)
2(458 459)
2(460 461)
2(462 463)
2(464 465)
2(466 467)
2(468 469)
2(470 471)
2(472 473)
)

// featurePointNormals
0()
// featurePointEdges
0()
// regionEdges
0()


// ************************************************************************* //
