/*--------------------------------*- C++ -*----------------------------------*\
  =========                 |
  \\      /  F ield         | OpenFOAM: The Open Source CFD Toolbox
   \\    /   O peration     | Website:  https://openfoam.org
    \\  /    A nd           | Version:  7
     \\/     M anipulation  |
\*---------------------------------------------------------------------------*/
FoamFile
{
    version     2.0;
    format      ascii;
    class       featureEdgeMesh;
    location    "constant/triSurface";
    object      baffles.eMesh;
}
// * * * * * * * * * * * * * * * * * * * * * * * * * * * * * * * * * * * * * //


// points:

139
(
(97.7547 11.0409 194.709)
(94.5463 11.0409 195.43)
(24.1194 11.0409 148.101)
(24.7702 11.0409 151.03)
(71.4486 11.0409 77.6742)
(68.52 11.0409 78.325)
(141.225 11.0409 122.075)
(141.876 11.0409 125.003)
(129.532 11.0409 124.703)
(130.19 11.0409 127.63)
(95.1281 11.0409 183.023)
(91.9196 11.0409 183.744)
(71.1483 11.0409 90.018)
(74.0752 11.0409 89.3601)
(36.4632 11.0409 148.401)
(35.8053 11.0409 145.474)
(71.1483 166.041 90.018)
(74.0752 166.041 89.3601)
(129.532 166.041 124.703)
(130.19 166.041 127.63)
(141.876 166.041 125.003)
(24.7702 166.041 151.03)
(36.4632 166.041 148.401)
(68.52 166.041 78.325)
(91.9196 166.041 183.744)
(94.5463 166.041 195.43)
(141.225 166.041 122.075)
(71.4486 166.041 77.6742)
(95.1281 166.041 183.023)
(97.7547 166.041 194.709)
(24.1194 166.041 148.101)
(35.8053 166.041 145.474)
(142.767 166.041 131.295)
(25.1006 166.041 152.299)
(65.542 166.041 79.1474)
(90.0232 166.041 196.139)
(139.86 166.041 117.403)
(72.454 166.041 77.4858)
(116.457 166.041 186.356)
(110.332 166.041 189.964)
(103.823 166.041 192.822)
(137.196 166.041 110.812)
(142.969 166.041 138.401)
(142.329 166.041 145.481)
(140.857 166.041 152.436)
(138.572 166.041 159.168)
(135.507 166.041 165.582)
(131.705 166.041 171.589)
(127.219 166.041 177.104)
(122.113 166.041 182.049)
(82.9263 166.041 196.552)
(75.8304 166.041 196.123)
(68.8352 166.041 194.857)
(62.0387 166.041 192.773)
(55.5364 166.041 189.899)
(49.4197 166.041 186.277)
(23.6446 166.041 145.341)
(23.0217 166.041 138.259)
(23.2408 166.041 131.154)
(24.2987 166.041 124.124)
(43.7743 166.041 181.956)
(38.6795 166.041 176.999)
(34.2068 166.041 171.473)
(26.1807 166.041 117.269)
(28.8602 166.041 110.684)
(32.2996 166.041 104.463)
(100.589 166.041 79.189)
(107.25 166.041 81.6722)
(30.419 166.041 165.458)
(27.3694 166.041 159.036)
(36.4508 166.041 98.6918)
(41.2554 166.041 93.4523)
(46.646 166.041 88.8178)
(79.514 166.041 76.6534)
(86.6228 166.041 76.6618)
(93.6808 166.041 77.511)
(113.571 166.041 84.9258)
(119.462 166.041 88.9041)
(124.841 166.041 93.5514)
(52.5468 166.041 84.8535)
(58.8751 166.041 81.6149)
(129.634 166.041 98.8022)
(133.771 166.041 104.583)
(103.823 167.041 192.822)
(97.0214 167.041 194.89)
(97.0214 11.0409 194.89)
(90.0232 167.041 196.139)
(82.9263 167.041 196.552)
(75.8304 167.041 196.123)
(68.8352 167.041 194.857)
(62.0387 167.041 192.773)
(55.5364 167.041 189.899)
(49.4197 167.041 186.277)
(43.7743 167.041 181.956)
(38.6795 167.041 176.999)
(34.2068 167.041 171.473)
(30.419 167.041 165.458)
(27.3694 167.041 159.036)
(25.1006 167.041 152.299)
(58.8751 167.041 81.6149)
(65.542 167.041 79.1474)
(52.5468 167.041 84.8535)
(46.646 167.041 88.8178)
(41.2554 167.041 93.4523)
(36.4508 167.041 98.6918)
(32.2996 167.041 104.463)
(28.8602 167.041 110.684)
(26.1807 167.041 117.269)
(24.2987 167.041 124.124)
(23.2408 167.041 131.154)
(23.0217 167.041 138.259)
(23.6446 167.041 145.341)
(72.454 167.041 77.4858)
(79.514 167.041 76.6534)
(86.6228 167.041 76.6618)
(93.6808 167.041 77.511)
(100.589 167.041 79.189)
(107.25 167.041 81.6722)
(113.571 167.041 84.9258)
(119.462 167.041 88.9041)
(124.841 167.041 93.5514)
(129.634 167.041 98.8022)
(133.771 167.041 104.583)
(137.196 167.041 110.812)
(139.86 167.041 117.403)
(141.725 167.041 124.263)
(141.725 11.0409 124.263)
(142.767 167.041 131.295)
(142.969 167.041 138.401)
(142.329 167.041 145.481)
(140.857 167.041 152.436)
(138.572 167.041 159.168)
(135.507 167.041 165.582)
(133.695 167.041 168.642)
(110.332 167.041 189.964)
(116.457 167.041 186.356)
(122.113 167.041 182.049)
(127.219 167.041 177.104)
(131.705 167.041 171.589)
)


// edges:

155
(
(20 32)
(33 21)
(34 23)
(25 35)
(36 26)
(27 37)
(38 39)
(39 40)
(40 29)
(41 36)
(32 42)
(42 43)
(43 44)
(44 45)
(45 46)
(46 47)
(47 48)
(48 49)
(49 38)
(35 50)
(50 51)
(51 52)
(52 53)
(53 54)
(54 55)
(30 56)
(56 57)
(57 58)
(58 59)
(55 60)
(60 61)
(61 62)
(59 63)
(63 64)
(64 65)
(66 67)
(62 68)
(68 69)
(69 33)
(65 70)
(70 71)
(71 72)
(37 73)
(73 74)
(74 75)
(75 66)
(67 76)
(76 77)
(77 78)
(72 79)
(79 80)
(80 34)
(78 81)
(81 82)
(82 41)
(0 29)
(83 84)
(85 0)
(25 1)
(1 85)
(84 86)
(86 87)
(87 88)
(88 89)
(89 90)
(90 91)
(91 92)
(92 93)
(93 94)
(94 95)
(95 96)
(96 97)
(97 98)
(30 2)
(2 3)
(3 21)
(99 100)
(101 99)
(102 101)
(103 102)
(104 103)
(105 104)
(106 105)
(107 106)
(108 107)
(109 108)
(110 109)
(111 110)
(98 111)
(27 4)
(4 5)
(5 23)
(100 112)
(112 113)
(113 114)
(114 115)
(115 116)
(116 117)
(117 118)
(118 119)
(119 120)
(120 121)
(121 122)
(122 123)
(123 124)
(124 125)
(6 26)
(126 6)
(20 7)
(7 126)
(125 127)
(127 128)
(128 129)
(129 130)
(130 131)
(131 132)
(132 133)
(134 83)
(135 134)
(136 135)
(137 136)
(138 137)
(133 138)
(18 8)
(8 9)
(9 19)
(6 8)
(9 7)
(28 10)
(10 11)
(11 24)
(0 10)
(11 1)
(16 12)
(12 13)
(13 17)
(5 12)
(13 4)
(22 14)
(14 15)
(15 31)
(3 14)
(15 2)
(16 17)
(19 20)
(21 22)
(23 16)
(24 25)
(26 18)
(17 27)
(28 24)
(29 28)
(31 30)
(18 19)
(22 31)
)

// * * * * * * * * * * * * * * * * * * * * * * * * * * * * * * * * * * * * * //


// ************************************************************************* //
