/*--------------------------------*- C++ -*----------------------------------*\
  =========                 |
  \\      /  F ield         | OpenFOAM: The Open Source CFD Toolbox
   \\    /   O peration     | Website:  https://openfoam.org
    \\  /    A nd           | Version:  7
     \\/     M anipulation  |
\*---------------------------------------------------------------------------*/
FoamFile
{
    version     2.0;
    format      ascii;
    class       featureEdgeMesh;
    location    "constant/triSurface";
    object      impeller.eMesh;
}
// * * * * * * * * * * * * * * * * * * * * * * * * * * * * * * * * * * * * * //


// points:

216
(
(81.9974 32.1308 142.177)
(83.9974 32.1308 142.177)
(83.9974 32.1308 152.177)
(83.9974 24.1308 152.177)
(83.9974 24.1308 142.177)
(81.9974 32.1308 152.177)
(81.9974 24.1308 152.177)
(81.9974 24.1308 142.177)
(77.626 32.1308 138.499)
(78.626 32.1308 140.231)
(69.9658 32.1308 145.231)
(69.9658 24.1308 145.231)
(78.626 24.1308 140.231)
(68.9658 32.1308 143.499)
(68.9658 24.1308 143.499)
(77.626 24.1308 138.499)
(87.3688 32.1308 140.231)
(88.3688 32.1308 138.499)
(96.0291 32.1308 145.231)
(97.0291 32.1308 143.499)
(88.3688 24.1308 138.499)
(87.3688 24.1308 140.231)
(97.0291 24.1308 143.499)
(96.0291 24.1308 145.231)
(88.3688 32.1308 134.606)
(87.3688 32.1308 132.874)
(87.3688 24.1308 132.874)
(88.3688 24.1308 134.606)
(96.0291 32.1308 127.874)
(96.0291 24.1308 127.874)
(97.0291 32.1308 129.606)
(97.0291 24.1308 129.606)
(83.9974 32.1308 130.927)
(81.9974 32.1308 130.927)
(83.9974 32.1308 120.927)
(83.9974 24.1308 120.927)
(81.9974 32.1308 120.927)
(81.9974 24.1308 120.927)
(83.9974 24.1308 130.927)
(81.9974 24.1308 130.927)
(78.626 32.1308 132.874)
(77.626 32.1308 134.606)
(77.626 24.1308 134.606)
(78.626 24.1308 132.874)
(68.9658 32.1308 129.606)
(68.9658 24.1308 129.606)
(69.9658 32.1308 127.874)
(69.9658 24.1308 127.874)
(76.0602 27.1308 139.403)
(76.0602 29.1308 139.403)
(76.0602 29.1308 133.702)
(76.0602 27.1308 133.702)
(77.626 27.1308 134.606)
(77.0602 27.1308 141.135)
(78.626 27.1308 140.231)
(81.9974 27.1308 129.119)
(81.9974 27.1308 130.927)
(77.626 27.1308 138.499)
(78.626 27.1308 132.874)
(88.9346 27.1308 131.97)
(87.3688 27.1308 132.874)
(89.9346 27.1308 139.403)
(88.3688 27.1308 138.499)
(77.0602 27.1308 131.97)
(83.9974 27.1308 130.927)
(88.3688 27.1308 134.606)
(89.9346 27.1308 133.702)
(81.9974 27.1308 142.177)
(81.9974 27.1308 143.985)
(83.9974 27.1308 143.985)
(83.9974 27.1308 142.177)
(87.3688 27.1308 140.231)
(88.9346 27.1308 141.135)
(83.9974 27.1308 129.119)
(77.626 29.1308 134.606)
(77.626 29.1308 138.499)
(81.9974 29.1308 143.985)
(81.9974 29.1308 142.177)
(78.626 29.1308 132.874)
(77.0602 29.1308 131.97)
(81.9974 29.1308 129.119)
(81.9974 29.1308 130.927)
(89.9346 29.1308 133.702)
(88.3688 29.1308 134.606)
(83.9974 29.1308 142.177)
(78.626 29.1308 140.231)
(87.3688 29.1308 140.231)
(88.9346 29.1308 141.135)
(83.9974 29.1308 143.985)
(87.3688 29.1308 132.874)
(88.3688 29.1308 138.499)
(83.9974 29.1308 130.927)
(83.9974 29.1308 129.119)
(77.0602 29.1308 141.135)
(88.9346 29.1308 131.97)
(89.9346 29.1308 139.403)
(75.7017 29.1308 138.291)
(75.7017 27.1308 138.291)
(75.5202 29.1308 137.136)
(75.5202 27.1308 137.136)
(75.5202 29.1308 135.968)
(75.5202 27.1308 135.968)
(75.7017 29.1308 134.814)
(75.7017 27.1308 134.814)
(77.844 27.1308 142.001)
(80.8551 27.1308 129.365)
(78.7529 27.1308 142.736)
(79.7647 27.1308 143.32)
(80.8551 27.1308 143.74)
(88.1508 27.1308 131.103)
(90.2932 27.1308 138.291)
(77.844 27.1308 131.103)
(78.7529 27.1308 130.369)
(79.7647 27.1308 129.785)
(90.2932 27.1308 134.814)
(90.4746 27.1308 137.136)
(85.1397 27.1308 143.74)
(86.2301 27.1308 143.32)
(90.4746 27.1308 135.968)
(88.1508 27.1308 142.001)
(87.242 27.1308 142.736)
(85.1397 27.1308 129.365)
(86.2301 27.1308 129.785)
(87.242 27.1308 130.369)
(80.8551 29.1308 143.74)
(79.7647 29.1308 129.785)
(78.7529 29.1308 130.369)
(77.844 29.1308 131.103)
(80.8551 29.1308 129.365)
(90.2932 29.1308 134.814)
(87.242 29.1308 142.736)
(88.1508 29.1308 142.001)
(85.1397 29.1308 143.74)
(86.2301 29.1308 143.32)
(86.2301 29.1308 129.785)
(85.1397 29.1308 129.365)
(77.844 29.1308 142.001)
(78.7529 29.1308 142.736)
(79.7647 29.1308 143.32)
(88.1508 29.1308 131.103)
(87.242 29.1308 130.369)
(90.2932 29.1308 138.291)
(90.4746 29.1308 137.136)
(90.4746 29.1308 135.968)
(80.043 149.131 137.073)
(79.9974 149.131 136.552)
(80.1783 149.131 137.578)
(80.3993 149.131 138.052)
(80.6993 149.131 138.481)
(81.0691 149.131 138.85)
(81.4974 149.131 139.15)
(81.9714 149.131 139.371)
(82.4765 149.131 139.507)
(82.9974 149.131 139.552)
(83.5184 149.131 139.507)
(84.0235 149.131 139.371)
(84.4974 149.131 139.15)
(84.9258 149.131 138.85)
(85.2955 149.131 138.481)
(85.5955 149.131 138.052)
(85.8165 149.131 137.578)
(85.9518 149.131 137.073)
(85.9974 149.131 136.552)
(85.9518 149.131 136.031)
(85.8165 149.131 135.526)
(85.5955 149.131 135.052)
(85.2955 149.131 134.624)
(84.9258 149.131 134.254)
(84.4974 149.131 133.954)
(84.0235 149.131 133.733)
(83.5184 149.131 133.598)
(82.9974 149.131 133.552)
(82.4765 149.131 133.598)
(81.9714 149.131 133.733)
(81.4974 149.131 133.954)
(81.0691 149.131 134.254)
(80.6993 149.131 134.624)
(80.3993 149.131 135.052)
(80.1783 149.131 135.526)
(80.043 149.131 136.031)
(79.9974 29.1308 136.552)
(80.043 29.1308 136.031)
(80.1783 29.1308 135.526)
(81.0691 29.1308 138.85)
(80.6993 29.1308 138.481)
(81.4974 29.1308 139.15)
(80.3993 29.1308 138.052)
(80.1783 29.1308 137.578)
(80.043 29.1308 137.073)
(80.3993 29.1308 135.052)
(80.6993 29.1308 134.624)
(81.0691 29.1308 134.254)
(81.4974 29.1308 133.954)
(83.5184 29.1308 133.598)
(84.0235 29.1308 133.733)
(84.4974 29.1308 133.954)
(84.9258 29.1308 134.254)
(81.9714 29.1308 133.733)
(82.4765 29.1308 133.598)
(82.9974 29.1308 133.552)
(85.5955 29.1308 138.052)
(85.2955 29.1308 138.481)
(85.8165 29.1308 137.578)
(84.9258 29.1308 138.85)
(84.4974 29.1308 139.15)
(84.0235 29.1308 139.371)
(83.5184 29.1308 139.507)
(82.9974 29.1308 139.552)
(82.4765 29.1308 139.507)
(81.9714 29.1308 139.371)
(85.2955 29.1308 134.624)
(85.5955 29.1308 135.052)
(85.8165 29.1308 135.526)
(85.9518 29.1308 136.031)
(85.9974 29.1308 136.552)
(85.9518 29.1308 137.073)
)


// edges:

264
(
(49 96)
(97 48)
(96 98)
(99 97)
(98 100)
(101 99)
(100 102)
(103 101)
(102 50)
(51 103)
(104 53)
(105 55)
(106 104)
(107 106)
(108 107)
(109 59)
(110 61)
(63 111)
(111 112)
(112 113)
(113 105)
(66 114)
(115 110)
(68 108)
(116 69)
(117 116)
(114 118)
(118 115)
(72 119)
(119 120)
(73 121)
(121 122)
(122 123)
(123 109)
(120 117)
(124 76)
(125 126)
(126 127)
(127 79)
(80 128)
(128 125)
(129 82)
(130 131)
(131 87)
(88 132)
(132 133)
(133 130)
(134 135)
(135 92)
(93 136)
(136 137)
(137 138)
(138 124)
(94 139)
(139 140)
(140 134)
(95 141)
(141 142)
(142 143)
(143 129)
(144 145)
(146 144)
(147 146)
(148 147)
(149 148)
(150 149)
(151 150)
(152 151)
(153 152)
(154 153)
(155 154)
(156 155)
(157 156)
(158 157)
(159 158)
(160 159)
(161 160)
(162 161)
(163 162)
(164 163)
(165 164)
(166 165)
(167 166)
(168 167)
(169 168)
(170 169)
(171 170)
(172 171)
(173 172)
(174 173)
(175 174)
(176 175)
(177 176)
(178 177)
(179 178)
(145 179)
(77 0)
(1 84)
(0 1)
(1 2)
(2 3)
(4 70)
(3 4)
(5 6)
(2 5)
(6 3)
(67 7)
(7 6)
(5 0)
(4 7)
(75 8)
(9 85)
(8 9)
(9 10)
(10 11)
(12 54)
(11 12)
(13 14)
(10 13)
(14 11)
(57 15)
(15 14)
(13 8)
(12 15)
(16 17)
(86 16)
(17 90)
(16 18)
(19 17)
(18 19)
(62 20)
(21 71)
(20 21)
(19 22)
(22 20)
(18 23)
(23 22)
(21 23)
(83 24)
(25 89)
(24 25)
(60 26)
(26 27)
(27 65)
(25 28)
(28 29)
(29 26)
(30 31)
(28 30)
(31 29)
(27 31)
(30 24)
(91 32)
(33 81)
(32 33)
(34 35)
(36 34)
(37 36)
(35 37)
(64 38)
(38 35)
(34 32)
(56 39)
(39 38)
(33 36)
(37 39)
(78 40)
(41 74)
(40 41)
(52 42)
(42 43)
(43 58)
(41 44)
(44 45)
(45 42)
(46 47)
(44 46)
(47 45)
(43 47)
(46 40)
(48 49)
(50 51)
(51 52)
(53 54)
(55 56)
(54 57)
(52 58)
(59 60)
(61 62)
(58 63)
(60 65)
(65 66)
(57 48)
(67 68)
(69 70)
(56 64)
(62 71)
(71 72)
(64 73)
(70 67)
(74 50)
(49 75)
(76 77)
(79 78)
(81 80)
(180 181)
(181 182)
(78 74)
(183 184)
(185 183)
(82 83)
(77 84)
(87 86)
(84 88)
(184 186)
(186 187)
(187 188)
(188 180)
(182 189)
(83 89)
(92 91)
(85 93)
(189 190)
(190 191)
(191 192)
(89 94)
(90 95)
(193 194)
(194 195)
(195 196)
(192 197)
(197 198)
(91 81)
(198 199)
(199 193)
(200 201)
(86 90)
(202 200)
(201 203)
(203 204)
(204 205)
(205 206)
(206 207)
(207 208)
(75 85)
(208 209)
(209 185)
(196 210)
(210 211)
(211 212)
(212 213)
(213 214)
(214 215)
(215 202)
(63 79)
(80 55)
(73 92)
(94 59)
(66 82)
(95 61)
(68 76)
(93 53)
(72 87)
(88 69)
)

// * * * * * * * * * * * * * * * * * * * * * * * * * * * * * * * * * * * * * //


// ************************************************************************* //
