/*--------------------------------*- C++ -*----------------------------------*\
  =========                 |
  \\      /  F ield         | OpenFOAM: The Open Source CFD Toolbox
   \\    /   O peration     | Website:  https://openfoam.org
    \\  /    A nd           | Version:  9
     \\/     M anipulation  |
\*---------------------------------------------------------------------------*/
FoamFile
{
    format      ascii;
    class       featureEdgeMesh;
    location    "constant/triSurface";
    object      outlet.eMesh;
}
// * * * * * * * * * * * * * * * * * * * * * * * * * * * * * * * * * * * * * //


// points:

124
(
(785.03101 2162.7981 2156.6001)
(784.59998 2154.3 2156.6001)
(785.03101 2162.7981 2158.6001)
(786.31952 2171.209 2158.6001)
(786.31952 2171.209 2156.6001)
(788.45227 2179.447 2158.6001)
(788.45227 2179.447 2156.6001)
(791.40759 2187.426 2158.6001)
(791.40759 2187.426 2156.6001)
(795.15491 2195.0649 2158.6001)
(795.15491 2195.0649 2156.6001)
(799.65588 2202.2871 2158.6001)
(799.65588 2202.2871 2156.6001)
(804.86432 2209.0149 2158.6001)
(804.86432 2209.0149 2156.6001)
(810.72681 2215.1831 2158.6001)
(810.72681 2215.1831 2156.6001)
(817.18311 2220.7251 2158.6001)
(817.18311 2220.7251 2156.6001)
(824.16699 2225.5859 2158.6001)
(824.16699 2225.5859 2156.6001)
(831.60687 2229.7161 2158.6001)
(831.60687 2229.7161 2156.6001)
(839.42639 2233.071 2158.6001)
(839.42639 2233.071 2156.6001)
(847.54523 2235.6189 2158.6001)
(847.54523 2235.6189 2156.6001)
(855.88013 2237.3311 2158.6001)
(855.88013 2237.3311 2156.6001)
(864.34552 2238.1919 2158.6001)
(864.34552 2238.1919 2156.6001)
(872.85449 2238.1919 2158.6001)
(872.85449 2238.1919 2156.6001)
(881.31989 2237.3311 2158.6001)
(881.31989 2237.3311 2156.6001)
(889.65479 2235.6189 2158.6001)
(889.65479 2235.6189 2156.6001)
(897.77368 2233.071 2158.6001)
(897.77368 2233.071 2156.6001)
(905.59308 2229.7161 2158.6001)
(905.59308 2229.7161 2156.6001)
(913.03302 2225.5859 2158.6001)
(913.03302 2225.5859 2156.6001)
(920.01691 2220.7251 2158.6001)
(920.01691 2220.7251 2156.6001)
(926.47321 2215.1831 2158.6001)
(926.47321 2215.1831 2156.6001)
(932.33569 2209.0149 2158.6001)
(932.33569 2209.0149 2156.6001)
(937.54413 2202.2871 2158.6001)
(937.54413 2202.2871 2156.6001)
(942.0451 2195.0649 2158.6001)
(942.0451 2195.0649 2156.6001)
(945.79248 2187.426 2158.6001)
(945.79248 2187.426 2156.6001)
(948.74768 2179.447 2158.6001)
(948.74768 2179.447 2156.6001)
(950.88049 2171.209 2158.6001)
(950.88049 2171.209 2156.6001)
(952.16901 2162.7981 2158.6001)
(952.16901 2162.7981 2156.6001)
(952.59998 2154.3 2158.6001)
(952.59998 2154.3 2156.6001)
(952.16901 2145.802 2158.6001)
(952.16901 2145.802 2156.6001)
(950.88049 2137.3911 2158.6001)
(950.88049 2137.3911 2156.6001)
(948.74768 2129.1541 2158.6001)
(948.74768 2129.1541 2156.6001)
(945.79248 2121.1741 2158.6001)
(945.79248 2121.1741 2156.6001)
(942.0451 2113.5349 2158.6001)
(942.0451 2113.5349 2156.6001)
(937.54413 2106.314 2158.6001)
(937.54413 2106.314 2156.6001)
(932.33569 2099.585 2158.6001)
(932.33569 2099.585 2156.6001)
(926.47321 2093.417 2158.6001)
(926.47321 2093.417 2156.6001)
(920.01691 2087.875 2158.6001)
(920.01691 2087.875 2156.6001)
(913.03302 2083.0139 2158.6001)
(913.03302 2083.0139 2156.6001)
(905.59308 2078.884 2158.6001)
(905.59308 2078.884 2156.6001)
(897.77368 2075.5291 2158.6001)
(897.77368 2075.5291 2156.6001)
(889.65479 2072.9819 2158.6001)
(889.65479 2072.9819 2156.6001)
(881.31989 2071.269 2158.6001)
(881.31989 2071.269 2156.6001)
(872.85449 2070.408 2158.6001)
(872.85449 2070.408 2156.6001)
(864.34552 2070.408 2158.6001)
(864.34552 2070.408 2156.6001)
(855.88013 2071.269 2158.6001)
(855.88013 2071.269 2156.6001)
(847.54523 2072.9819 2158.6001)
(847.54523 2072.9819 2156.6001)
(839.42639 2075.5291 2158.6001)
(839.42639 2075.5291 2156.6001)
(831.60687 2078.884 2158.6001)
(831.60687 2078.884 2156.6001)
(824.16699 2083.0139 2158.6001)
(824.16699 2083.0139 2156.6001)
(817.18311 2087.875 2158.6001)
(817.18311 2087.875 2156.6001)
(810.72681 2093.417 2158.6001)
(810.72681 2093.417 2156.6001)
(804.86432 2099.585 2158.6001)
(804.86432 2099.585 2156.6001)
(799.65588 2106.314 2158.6001)
(799.65588 2106.314 2156.6001)
(795.15491 2113.5349 2158.6001)
(795.15491 2113.5349 2156.6001)
(791.40759 2121.1741 2158.6001)
(791.40759 2121.1741 2156.6001)
(788.45227 2129.1541 2158.6001)
(788.45227 2129.1541 2156.6001)
(786.31952 2137.3911 2158.6001)
(786.31952 2137.3911 2156.6001)
(785.03101 2145.802 2158.6001)
(785.03101 2145.802 2156.6001)
(784.59998 2154.3 2158.6001)
)


// edges:

124
(
(0 1)
(2 3)
(4 0)
(3 5)
(6 4)
(5 7)
(8 6)
(7 9)
(10 8)
(9 11)
(12 10)
(11 13)
(14 12)
(13 15)
(16 14)
(15 17)
(18 16)
(17 19)
(20 18)
(19 21)
(22 20)
(21 23)
(24 22)
(23 25)
(26 24)
(25 27)
(28 26)
(27 29)
(30 28)
(29 31)
(32 30)
(31 33)
(34 32)
(33 35)
(36 34)
(35 37)
(38 36)
(37 39)
(40 38)
(39 41)
(42 40)
(41 43)
(44 42)
(43 45)
(46 44)
(45 47)
(48 46)
(47 49)
(50 48)
(49 51)
(52 50)
(51 53)
(54 52)
(53 55)
(56 54)
(55 57)
(58 56)
(57 59)
(60 58)
(59 61)
(62 60)
(61 63)
(64 62)
(63 65)
(66 64)
(65 67)
(68 66)
(67 69)
(70 68)
(69 71)
(72 70)
(71 73)
(74 72)
(73 75)
(76 74)
(75 77)
(78 76)
(77 79)
(80 78)
(79 81)
(82 80)
(81 83)
(84 82)
(83 85)
(86 84)
(85 87)
(88 86)
(87 89)
(90 88)
(89 91)
(92 90)
(91 93)
(94 92)
(93 95)
(96 94)
(95 97)
(98 96)
(97 99)
(100 98)
(99 101)
(102 100)
(101 103)
(104 102)
(103 105)
(106 104)
(105 107)
(108 106)
(107 109)
(110 108)
(109 111)
(112 110)
(111 113)
(114 112)
(113 115)
(116 114)
(115 117)
(118 116)
(117 119)
(120 118)
(119 121)
(122 120)
(121 123)
(1 122)
(123 2)
)

// * * * * * * * * * * * * * * * * * * * * * * * * * * * * * * * * * * * * * //


// ************************************************************************* //
