/*--------------------------------*- C++ -*----------------------------------*\
  =========                 |
  \\      /  F ield         | OpenFOAM: The Open Source CFD Toolbox
   \\    /   O peration     | Website:  https://openfoam.org
    \\  /    A nd           | Version:  9
     \\/     M anipulation  |
\*---------------------------------------------------------------------------*/
FoamFile
{
    format      ascii;
    class       extendedFeatureEdgeMesh;
    location    "constant/extendedFeatureEdgeMesh";
    object      drafttube.extendedFeatureEdgeMesh;
}
// * * * * * * * * * * * * * * * * * * * * * * * * * * * * * * * * * * * * * //

// points

308
(
(661.193 535.812 1140.12)
(661.193 535.812 1092.12)
(578.055 535.812 1092.12)
(578.055 535.812 1140.12)
(619.624 535.812 1166.12)
(619.624 535.812 1066.12)
(619.624 535.812 1164.12)
(619.624 535.812 1068.12)
(623.274 535.812 1165.99)
(615.974 285.812 1165.99)
(619.624 285.812 1166.12)
(615.974 535.812 1165.99)
(608.753 535.812 1164.93)
(608.753 285.812 1164.93)
(601.763 535.812 1162.82)
(601.763 285.812 1162.82)
(595.153 535.812 1159.73)
(595.153 285.812 1159.73)
(589.065 535.812 1155.7)
(589.065 285.812 1155.7)
(583.629 535.812 1150.83)
(583.629 285.812 1150.83)
(578.96 535.812 1145.22)
(578.96 285.812 1145.22)
(575.157 535.812 1138.99)
(575.157 285.812 1138.99)
(572.302 535.812 1132.27)
(572.302 285.812 1132.27)
(570.456 535.812 1125.21)
(570.456 285.812 1125.21)
(569.657 535.812 1117.95)
(569.657 285.812 1117.95)
(569.924 535.812 1110.66)
(569.924 285.812 1110.66)
(571.25 535.812 1103.48)
(571.25 285.812 1103.48)
(573.607 535.812 1096.57)
(573.607 285.812 1096.57)
(576.944 535.812 1090.08)
(576.944 285.812 1090.08)
(581.192 535.812 1084.14)
(581.192 285.812 1084.14)
(586.258 535.812 1078.89)
(586.258 285.812 1078.89)
(592.036 535.812 1074.42)
(592.036 285.812 1074.42)
(598.401 535.812 1070.85)
(598.401 285.812 1070.85)
(605.219 535.812 1068.24)
(605.219 285.812 1068.24)
(612.344 535.812 1066.66)
(612.344 285.812 1066.66)
(619.624 285.812 1066.12)
(626.904 535.812 1066.66)
(626.904 285.812 1066.66)
(634.029 535.812 1068.24)
(634.029 285.812 1068.24)
(640.847 535.812 1070.85)
(640.847 285.812 1070.85)
(647.213 535.812 1074.42)
(647.213 285.812 1074.42)
(652.99 535.812 1078.89)
(652.99 285.812 1078.89)
(658.056 535.812 1084.14)
(658.056 285.812 1084.14)
(662.304 535.812 1090.08)
(662.304 285.812 1090.08)
(665.641 535.812 1096.57)
(665.641 285.812 1096.57)
(667.998 535.812 1103.48)
(667.998 285.812 1103.48)
(669.324 535.812 1110.66)
(669.324 285.812 1110.66)
(669.591 535.812 1117.95)
(669.591 285.812 1117.95)
(668.792 535.812 1125.21)
(668.792 285.812 1125.21)
(666.946 535.812 1132.27)
(666.946 285.812 1132.27)
(664.091 535.812 1138.99)
(664.091 285.812 1138.99)
(660.289 535.812 1145.22)
(660.289 285.812 1145.22)
(655.619 535.812 1150.83)
(655.619 285.812 1150.83)
(650.183 535.812 1155.7)
(650.183 285.812 1155.7)
(644.095 535.812 1159.73)
(644.095 285.812 1159.73)
(637.486 535.812 1162.82)
(637.486 285.812 1162.82)
(630.496 535.812 1164.93)
(630.496 285.812 1164.93)
(623.274 285.812 1165.99)
(626.778 535.812 1163.59)
(633.772 535.812 1161.99)
(640.451 535.812 1159.37)
(646.663 535.812 1155.78)
(652.272 535.812 1151.31)
(657.152 535.812 1146.05)
(664.306 535.812 1133.66)
(666.421 535.812 1126.81)
(667.49 535.812 1119.71)
(667.49 535.812 1112.54)
(666.421 535.812 1105.44)
(664.306 535.812 1098.59)
(657.152 535.812 1086.2)
(652.272 535.812 1080.94)
(646.663 535.812 1076.46)
(640.451 535.812 1072.88)
(633.772 535.812 1070.26)
(626.778 535.812 1068.66)
(612.47 535.812 1068.66)
(605.476 535.812 1070.26)
(598.798 535.812 1072.88)
(592.585 535.812 1076.46)
(586.976 535.812 1080.94)
(582.096 535.812 1086.2)
(574.942 535.812 1098.59)
(572.828 535.812 1105.44)
(571.758 535.812 1112.54)
(571.758 535.812 1119.71)
(572.828 535.812 1126.81)
(574.942 535.812 1133.66)
(582.096 535.812 1146.05)
(586.976 535.812 1151.31)
(592.585 535.812 1155.78)
(598.798 535.812 1159.37)
(605.476 535.812 1161.99)
(612.47 535.812 1163.59)
(612.47 285.812 1163.59)
(619.624 285.812 1164.12)
(605.476 285.812 1161.99)
(598.798 285.812 1159.37)
(592.585 285.812 1155.78)
(586.976 285.812 1151.31)
(582.096 285.812 1146.05)
(578.055 285.812 1140.12)
(574.942 285.812 1133.66)
(572.828 285.812 1126.81)
(571.758 285.812 1119.71)
(571.758 285.812 1112.54)
(572.828 285.812 1105.44)
(574.942 285.812 1098.59)
(578.055 285.812 1092.12)
(582.096 285.812 1086.2)
(586.976 285.812 1080.94)
(592.585 285.812 1076.46)
(598.798 285.812 1072.88)
(605.476 285.812 1070.26)
(612.47 285.812 1068.66)
(619.624 285.812 1068.12)
(626.778 285.812 1068.66)
(633.772 285.812 1070.26)
(640.451 285.812 1072.88)
(646.663 285.812 1076.46)
(652.272 285.812 1080.94)
(657.152 285.812 1086.2)
(661.193 285.812 1092.12)
(664.306 285.812 1098.59)
(666.421 285.812 1105.44)
(667.49 285.812 1112.54)
(667.49 285.812 1119.71)
(666.421 285.812 1126.81)
(664.306 285.812 1133.66)
(661.193 285.812 1140.12)
(657.152 285.812 1146.05)
(652.272 285.812 1151.31)
(646.663 285.812 1155.78)
(640.451 285.812 1159.37)
(633.772 285.812 1161.99)
(626.778 285.812 1163.59)
(628.307 535.812 1066.88)
(628.307 945.812 1066.88)
(636.725 945.812 1069.14)
(636.725 535.812 1069.14)
(644.624 945.812 1072.82)
(644.624 535.812 1072.82)
(651.763 945.812 1077.82)
(651.763 535.812 1077.82)
(657.926 945.812 1083.98)
(657.926 535.812 1083.98)
(662.925 945.812 1091.12)
(662.925 535.812 1091.12)
(666.609 945.812 1099.02)
(666.609 535.812 1099.02)
(668.865 945.812 1107.44)
(668.865 535.812 1107.44)
(669.624 945.812 1116.12)
(669.624 535.812 1116.12)
(668.865 945.812 1124.81)
(668.865 535.812 1124.81)
(666.609 945.812 1133.22)
(666.609 535.812 1133.22)
(662.925 945.812 1141.12)
(662.925 535.812 1141.12)
(657.926 945.812 1148.26)
(657.926 535.812 1148.26)
(651.763 945.812 1154.43)
(651.763 535.812 1154.43)
(644.624 945.812 1159.43)
(644.624 535.812 1159.43)
(636.725 945.812 1163.11)
(636.725 535.812 1163.11)
(628.307 945.812 1165.36)
(628.307 535.812 1165.36)
(619.624 945.812 1166.12)
(610.942 945.812 1165.36)
(610.942 535.812 1165.36)
(602.523 945.812 1163.11)
(602.523 535.812 1163.11)
(594.624 945.812 1159.43)
(594.624 535.812 1159.43)
(587.485 945.812 1154.43)
(587.485 535.812 1154.43)
(581.322 945.812 1148.26)
(581.322 535.812 1148.26)
(576.323 945.812 1141.12)
(576.323 535.812 1141.12)
(572.639 945.812 1133.22)
(572.639 535.812 1133.22)
(570.384 945.812 1124.81)
(570.384 535.812 1124.81)
(569.624 945.812 1116.12)
(569.624 535.812 1116.12)
(570.384 945.812 1107.44)
(570.384 535.812 1107.44)
(572.639 945.812 1099.02)
(572.639 535.812 1099.02)
(576.323 945.812 1091.12)
(576.323 535.812 1091.12)
(581.322 945.812 1083.98)
(581.322 535.812 1083.98)
(587.485 945.812 1077.82)
(587.485 535.812 1077.82)
(594.624 945.812 1072.82)
(594.624 535.812 1072.82)
(602.523 945.812 1069.14)
(602.523 535.812 1069.14)
(610.942 945.812 1066.88)
(610.942 535.812 1066.88)
(619.624 945.812 1066.12)
(656.394 945.812 1146.98)
(650.478 945.812 1152.89)
(661.193 945.812 1140.12)
(664.729 945.812 1132.54)
(666.895 945.812 1124.46)
(667.624 945.812 1116.12)
(666.895 945.812 1107.79)
(664.729 945.812 1099.71)
(661.193 945.812 1092.12)
(656.394 945.812 1085.27)
(650.478 945.812 1079.35)
(643.624 945.812 1074.56)
(636.041 945.812 1071.02)
(627.959 945.812 1068.85)
(619.624 945.812 1068.12)
(611.289 945.812 1068.85)
(603.207 945.812 1071.02)
(595.624 945.812 1074.56)
(588.77 945.812 1079.35)
(582.854 945.812 1085.27)
(578.055 945.812 1092.12)
(574.519 945.812 1099.71)
(572.353 945.812 1107.79)
(571.624 945.812 1116.12)
(572.353 945.812 1124.46)
(574.519 945.812 1132.54)
(578.055 945.812 1140.12)
(582.854 945.812 1146.98)
(588.77 945.812 1152.89)
(595.624 945.812 1157.69)
(603.207 945.812 1161.23)
(611.289 945.812 1163.4)
(619.624 945.812 1164.12)
(627.959 945.812 1163.4)
(636.041 945.812 1161.23)
(643.624 945.812 1157.69)
(656.394 535.812 1085.27)
(664.729 535.812 1099.71)
(666.895 535.812 1107.79)
(667.624 535.812 1116.12)
(666.895 535.812 1124.46)
(664.729 535.812 1132.54)
(656.394 535.812 1146.98)
(650.478 535.812 1152.89)
(643.624 535.812 1157.69)
(636.041 535.812 1161.23)
(627.959 535.812 1163.4)
(611.289 535.812 1163.4)
(603.207 535.812 1161.23)
(595.624 535.812 1157.69)
(588.77 535.812 1152.89)
(582.854 535.812 1146.98)
(574.519 535.812 1132.54)
(572.353 535.812 1124.46)
(571.624 535.812 1116.12)
(572.353 535.812 1107.79)
(574.519 535.812 1099.71)
(582.854 535.812 1085.27)
(588.77 535.812 1079.35)
(595.624 535.812 1074.56)
(603.207 535.812 1071.02)
(611.289 535.812 1068.85)
(627.959 535.812 1068.85)
(636.041 535.812 1071.02)
(643.624 535.812 1074.56)
(650.478 535.812 1079.35)
)

// edges

318
(
(8 4)
(9 10)
(4 11)
(11 12)
(13 9)
(12 14)
(15 13)
(14 16)
(17 15)
(16 18)
(19 17)
(18 20)
(21 19)
(20 22)
(23 21)
(22 24)
(25 23)
(24 26)
(27 25)
(26 28)
(29 27)
(28 30)
(31 29)
(30 32)
(33 31)
(32 34)
(35 33)
(34 36)
(37 35)
(36 38)
(39 37)
(38 40)
(41 39)
(40 42)
(43 41)
(42 44)
(45 43)
(44 46)
(47 45)
(46 48)
(49 47)
(48 50)
(51 49)
(50 5)
(52 51)
(5 53)
(54 52)
(53 55)
(56 54)
(55 57)
(58 56)
(57 59)
(60 58)
(59 61)
(62 60)
(61 63)
(64 62)
(63 65)
(66 64)
(65 67)
(68 66)
(67 69)
(70 68)
(69 71)
(72 70)
(71 73)
(74 72)
(73 75)
(76 74)
(75 77)
(78 76)
(77 79)
(80 78)
(79 81)
(82 80)
(81 83)
(84 82)
(83 85)
(86 84)
(85 87)
(88 86)
(87 89)
(90 88)
(89 91)
(92 90)
(91 8)
(93 92)
(10 93)
(94 6)
(95 94)
(96 95)
(97 96)
(98 97)
(99 98)
(0 99)
(100 0)
(101 100)
(102 101)
(103 102)
(104 103)
(105 104)
(1 105)
(106 1)
(107 106)
(108 107)
(109 108)
(110 109)
(111 110)
(7 111)
(112 7)
(113 112)
(114 113)
(115 114)
(116 115)
(117 116)
(2 117)
(118 2)
(119 118)
(120 119)
(121 120)
(122 121)
(123 122)
(3 123)
(124 3)
(125 124)
(126 125)
(127 126)
(128 127)
(129 128)
(6 129)
(130 131)
(132 130)
(133 132)
(134 133)
(135 134)
(136 135)
(137 136)
(138 137)
(139 138)
(140 139)
(141 140)
(142 141)
(143 142)
(144 143)
(145 144)
(146 145)
(147 146)
(148 147)
(149 148)
(150 149)
(151 150)
(152 151)
(153 152)
(154 153)
(155 154)
(156 155)
(157 156)
(158 157)
(159 158)
(160 159)
(161 160)
(162 161)
(163 162)
(164 163)
(165 164)
(166 165)
(167 166)
(168 167)
(169 168)
(170 169)
(171 170)
(131 171)
(172 5)
(173 174)
(175 172)
(174 176)
(177 175)
(176 178)
(179 177)
(178 180)
(181 179)
(180 182)
(183 181)
(182 184)
(185 183)
(184 186)
(187 185)
(186 188)
(189 187)
(188 190)
(191 189)
(190 192)
(193 191)
(192 194)
(195 193)
(194 196)
(197 195)
(196 198)
(199 197)
(198 200)
(201 199)
(200 202)
(203 201)
(202 204)
(205 203)
(204 206)
(4 205)
(206 207)
(208 4)
(207 209)
(210 208)
(209 211)
(212 210)
(211 213)
(214 212)
(213 215)
(216 214)
(215 217)
(218 216)
(217 219)
(220 218)
(219 221)
(222 220)
(221 223)
(224 222)
(223 225)
(226 224)
(225 227)
(228 226)
(227 229)
(230 228)
(229 231)
(232 230)
(231 233)
(234 232)
(233 235)
(236 234)
(235 237)
(238 236)
(237 239)
(240 238)
(239 241)
(5 240)
(241 173)
(242 243)
(244 242)
(245 244)
(246 245)
(247 246)
(248 247)
(249 248)
(250 249)
(251 250)
(252 251)
(253 252)
(254 253)
(255 254)
(256 255)
(257 256)
(258 257)
(259 258)
(260 259)
(261 260)
(262 261)
(263 262)
(264 263)
(265 264)
(266 265)
(267 266)
(268 267)
(269 268)
(270 269)
(271 270)
(272 271)
(273 272)
(274 273)
(275 274)
(276 275)
(277 276)
(243 277)
(1 278)
(279 1)
(280 279)
(281 280)
(282 281)
(283 282)
(0 283)
(284 0)
(285 284)
(286 285)
(287 286)
(288 287)
(6 288)
(289 6)
(290 289)
(291 290)
(292 291)
(293 292)
(3 293)
(294 3)
(295 294)
(296 295)
(297 296)
(298 297)
(2 298)
(299 2)
(300 299)
(301 300)
(302 301)
(303 302)
(7 303)
(304 7)
(305 304)
(306 305)
(307 306)
(278 307)
(4 6)
(5 7)
)

// concaveStart mixedStart nonFeatureStart
4 4 8
// internalStart flatStart openStart multipleStart
316 316 316 316
// normals

632
(
(-0 1 0)
(-0 -1 0)
(0 1 0)
(0 -1 0)
(0 1 0)
(0 -1 0)
(0 1 0)
(0 -1 -0)
(0.0366995 0 0.999326)
(-0.0366989 0 0.999326)
(0 -1 0)
(-0.0366989 0 0.999326)
(-0.145494 0 0.989359)
(0 1 0)
(-0.145494 0 0.989359)
(0 -1 0)
(-0.288101 0 0.9576)
(0 1 0)
(-0.288101 0 0.9576)
(0 -1 0)
(-0.424533 0 0.905412)
(0 1 0)
(-0.424533 0 0.905412)
(0 -1 0)
(-0.551706 0 0.834039)
(0 1 0)
(-0.551706 0 0.834039)
(-0 -1 0)
(-0.667306 0 0.744784)
(0 1 0)
(-0.667306 0 0.744784)
(-0 -1 0)
(-0.768658 0 0.63966)
(0 1 0)
(-0.768658 0 0.63966)
(-0 -1 0)
(-0.853603 0 0.520924)
(0 1 0)
(-0.853603 0 0.520924)
(-0 -1 0)
(-0.920346 0 0.391106)
(0 1 0)
(-0.920346 0 0.391106)
(-0 -1 0)
(-0.967481 0 0.252945)
(0 1 0)
(-0.967481 0 0.252945)
(-0 -1 0)
(-0.994001 0 0.109372)
(0 1 0)
(-0.994001 0 0.109372)
(-0 -1 0)
(-0.999333 0 -0.0365218)
(0 1 0)
(-0.999333 0 -0.0365218)
(-0 -1 0)
(-0.983365 0 -0.18164)
(0 1 0)
(-0.983365 0 -0.18164)
(-0 -1 0)
(-0.94643 0 -0.322908)
(0 1 0)
(-0.94643 0 -0.322908)
(-0 -1 0)
(-0.889351 0 -0.457226)
(0 1 0)
(-0.889351 0 -0.457226)
(-0 -1 0)
(-0.813306 0 -0.581836)
(0 1 0)
(-0.813306 0 -0.581836)
(-0 -1 0)
(-0.719907 0 -0.69407)
(0 1 0)
(-0.719907 0 -0.69407)
(-0 -1 0)
(-0.611152 0 -0.791513)
(0 1 0)
(-0.611152 0 -0.791513)
(-0 -1 0)
(-0.489472 0 -0.872019)
(0 1 0)
(-0.489472 0 -0.872019)
(-0 -1 0)
(-0.357147 0 -0.934048)
(0 1 0)
(-0.357147 0 -0.934048)
(-0 -1 0)
(-0.217417 0 -0.976079)
(0 1 0)
(-0.217417 0 -0.976079)
(0 -1 0)
(-0.0730124 0 -0.997331)
(0 1 0)
(-0.0730124 0 -0.997331)
(0 -1 -0)
(0.073013 0 -0.997331)
(0.073013 0 -0.997331)
(0 -1 -0)
(0.217417 0 -0.976079)
(0 1 0)
(0.217417 0 -0.976079)
(0 -1 -0)
(0.357147 0 -0.934048)
(-0 1 0)
(0.357147 0 -0.934048)
(0 -1 -0)
(0.489465 0 -0.872023)
(-0 1 0)
(0.489465 0 -0.872023)
(0 -1 -0)
(0.61116 0 -0.791507)
(-0 1 0)
(0.61116 0 -0.791507)
(0 -1 -0)
(0.719907 0 -0.69407)
(-0 1 0)
(0.719907 0 -0.69407)
(0 -1 -0)
(0.813306 0 -0.581836)
(-0 1 0)
(0.813306 0 -0.581836)
(0 -1 -0)
(0.889344 0 -0.457239)
(-0 1 0)
(0.889344 0 -0.457239)
(0 -1 -0)
(0.946433 0 -0.3229)
(-0 1 0)
(0.946433 0 -0.3229)
(0 -1 -0)
(0.983367 0 -0.181632)
(-0 1 0)
(0.983367 0 -0.181632)
(0 -1 0)
(0.999333 0 -0.0365218)
(-0 1 0)
(0.999333 0 -0.0365218)
(0 -1 0)
(0.994003 -0 0.109355)
(-0 1 0)
(0.994003 0 0.109355)
(0 -1 0)
(0.967481 -0 0.252945)
(-0 1 0)
(0.967481 0 0.252945)
(0 -1 0)
(0.920343 -0 0.391113)
(-0 1 -0)
(0.920343 0 0.391113)
(0 -1 0)
(0.853603 -0 0.520924)
(-0 1 -0)
(0.853603 0 0.520924)
(0 -1 0)
(0.768654 -0 0.639664)
(-0 1 -0)
(0.768654 0 0.639664)
(0 -1 0)
(0.667314 -0 0.744777)
(-0 1 -0)
(0.667314 0 0.744777)
(0 -1 0)
(0.551702 -0 0.834041)
(-0 1 -0)
(0.551702 0 0.834041)
(0 -1 0)
(0.42453 -0 0.905414)
(0 1 -0)
(0.42453 0 0.905414)
(0 -1 0)
(0.288106 -0 0.957599)
(0 1 -0)
(0.288106 0 0.957599)
(0 -1 0)
(0.145492 -0 0.989359)
(0 1 -0)
(0.145492 0 0.989359)
(0 -1 0)
(0.0366995 -0 0.999326)
(-0 -1 0)
(-0 1 0)
(-0.0747153 -0 -0.997205)
(-0 1 0)
(-0.222609 -0 -0.974908)
(-0 1 0)
(-0.365336 -0 -0.930876)
(-0 1 0)
(-0.500002 -0 -0.866024)
(0 1 0)
(-0.623478 -0 -0.781841)
(0 1 0)
(-0.733058 -0 -0.680166)
(0 1 0)
(-0.826215 -0 -0.563354)
(0 1 0)
(-0.900978 -0 -0.433865)
(0 1 0)
(-0.95557 -0 -0.294766)
(0 1 0)
(-0.988829 -0 -0.149054)
(0 1 0)
(-1 0 0)
(0 1 0)
(-0.988829 0 0.149054)
(0 1 0)
(-0.955581 0 0.294727)
(0 1 0)
(-0.900952 0 0.433919)
(0 1 0)
(-0.826259 0 0.563291)
(0 1 0)
(-0.733058 0 0.680166)
(0 1 0)
(-0.623489 0 0.781832)
(0 1 0)
(-0.500002 0 0.866024)
(0 1 0)
(-0.365336 0 0.930876)
(0 1 0)
(-0.222463 0 0.974941)
(0 1 0)
(-0.0747153 0 0.997205)
(0.074714 0 0.997205)
(0 1 0)
(0.222465 0 0.974941)
(0 1 0)
(0.365342 0 0.930873)
(0 1 0)
(0.499995 0 0.866028)
(0 1 0)
(0.623497 0 0.781826)
(0 1 0)
(0.733054 0 0.68017)
(0 1 0)
(0.826259 0 0.563291)
(0 1 0)
(0.900949 0 0.433926)
(0 1 0)
(0.955581 0 0.294727)
(0 1 0)
(0.988832 0 0.149038)
(0 1 -0)
(1 0 0)
(0 1 -0)
(0.988832 0 -0.149038)
(0 1 -0)
(0.95557 0 -0.294766)
(0 1 -0)
(0.900974 0 -0.433872)
(0 1 -0)
(0.826215 0 -0.563354)
(0 1 -0)
(0.733054 0 -0.68017)
(0 1 -0)
(0.623487 0 -0.781834)
(0 1 -0)
(0.499995 0 -0.866028)
(0 1 -0)
(0.365342 0 -0.930873)
(0 1 -0)
(0.222611 0 -0.974907)
(0 1 -0)
(0.074714 0 -0.997205)
(-0 -1 0)
(0.074714 0 -0.997205)
(-0 -1 0)
(0.222611 0 -0.974907)
(-0 -1 0)
(0.365342 0 -0.930873)
(-0 -1 0)
(0.499995 0 -0.866028)
(0 -1 0)
(0.623487 0 -0.781834)
(0 -1 0)
(0.733054 0 -0.68017)
(0 -1 0)
(0.826215 0 -0.563354)
(0 -1 0)
(0.900974 0 -0.433872)
(0 -1 0)
(0.95557 0 -0.294766)
(0 -1 0)
(0.988832 0 -0.149038)
(0 -1 -0)
(1 0 0)
(0 -1 -0)
(0.988832 0 0.149038)
(0 -1 -0)
(0.955581 0 0.294727)
(0 -1 -0)
(0.900949 0 0.433926)
(0 -1 -0)
(0.826259 0 0.563291)
(0 -1 -0)
(0.733054 0 0.68017)
(0 -1 -0)
(0.623497 0 0.781826)
(0 -1 -0)
(0.499995 0 0.866028)
(0 -1 -0)
(0.365342 0 0.930873)
(0 -1 -0)
(0.222465 0 0.974941)
(0 -1 -0)
(0.074714 0 0.997205)
(0 -1 0)
(-0.0747153 0 0.997205)
(0 -1 0)
(-0.222463 0 0.974941)
(0 -1 0)
(-0.365336 0 0.930876)
(0 -1 0)
(-0.500002 0 0.866024)
(0 -1 0)
(-0.623489 0 0.781832)
(0 -1 0)
(-0.733058 0 0.680166)
(0 -1 0)
(-0.826259 0 0.563291)
(0 -1 0)
(-0.900952 0 0.433919)
(0 -1 0)
(-0.955581 0 0.294727)
(0 -1 0)
(-0.988829 0 0.149054)
(0 -1 0)
(-1 -0 0)
(0 -1 0)
(-0.988829 -0 -0.149054)
(0 -1 0)
(-0.95557 -0 -0.294766)
(0 -1 0)
(-0.900978 -0 -0.433865)
(0 -1 0)
(-0.826215 -0 -0.563354)
(0 -1 0)
(-0.733058 -0 -0.680166)
(0 -1 0)
(-0.623478 -0 -0.781841)
(0 -1 0)
(-0.500002 -0 -0.866024)
(0 -1 0)
(-0.365336 -0 -0.930876)
(0 -1 0)
(-0.222609 -0 -0.974908)
(0 -1 0)
(-0.0747153 -0 -0.997205)
(0.0870895 0 -0.9962)
(0 -1 -0)
(0.258844 0 -0.965919)
(-0 1 0)
(0.258844 0 -0.965919)
(0 -1 -0)
(0.422675 0 -0.906281)
(-0 1 0)
(0.422675 0 -0.906281)
(0 -1 -0)
(0.573573 0 -0.819154)
(-0 1 0)
(0.573573 0 -0.819154)
(0 -1 -0)
(0.707061 0 -0.707152)
(-0 1 0)
(0.707061 0 -0.707152)
(0 -1 -0)
(0.819177 0 -0.57354)
(-0 1 0)
(0.819177 0 -0.57354)
(0 -1 -0)
(0.906304 0 -0.422626)
(-0 1 0)
(0.906304 0 -0.422626)
(0 -1 -0)
(0.965921 0 -0.258838)
(-0 1 0)
(0.965921 0 -0.258838)
(0 -1 -0)
(0.996195 0 -0.0871466)
(-0 1 0)
(0.996195 0 -0.0871466)
(0 -1 0)
(0.996195 -0 0.0871564)
(0 1 0)
(0.996195 0 0.0871564)
(0 -1 0)
(0.965927 -0 0.258814)
(0 1 -0)
(0.965927 0 0.258814)
(0 -1 0)
(0.906307 -0 0.422621)
(0 1 -0)
(0.906307 0 0.422621)
(0 -1 0)
(0.819136 -0 0.5736)
(0 1 -0)
(0.819136 0 0.5736)
(0 -1 0)
(0.707124 -0 0.707089)
(0 1 -0)
(0.707124 0 0.707089)
(0 -1 0)
(0.573573 -0 0.819154)
(0 1 -0)
(0.573573 0 0.819154)
(0 -1 0)
(0.422583 -0 0.906324)
(0 1 -0)
(0.422583 0 0.906324)
(0 -1 0)
(0.258844 -0 0.965919)
(0 1 -0)
(0.258844 0 0.965919)
(0 -1 0)
(0.0872007 -0 0.996191)
(0 1 -0)
(0.0872007 0 0.996191)
(-0.0872014 0 0.996191)
(0 1 -0)
(-0.0872014 0 0.996191)
(0 -1 0)
(-0.258842 0 0.96592)
(0 1 0)
(-0.258842 0 0.96592)
(0 -1 0)
(-0.422583 0 0.906324)
(0 1 0)
(-0.422583 0 0.906324)
(0 -1 0)
(-0.573573 0 0.819154)
(0 1 0)
(-0.573573 0 0.819154)
(0 -1 0)
(-0.707124 0 0.707089)
(0 1 0)
(-0.707124 0 0.707089)
(0 -1 0)
(-0.819133 0 0.573604)
(0 1 0)
(-0.819133 0 0.573604)
(0 -1 0)
(-0.906307 0 0.422621)
(0 1 0)
(-0.906307 0 0.422621)
(0 -1 0)
(-0.965931 0 0.2588)
(0 1 0)
(-0.965931 0 0.2588)
(0 -1 0)
(-0.996194 0 0.0871633)
(0 1 0)
(-0.996194 0 0.0871633)
(0 -1 0)
(-0.996195 0 -0.0871536)
(0 1 0)
(-0.996195 0 -0.0871536)
(-0 -1 0)
(-0.965924 0 -0.258825)
(0 1 0)
(-0.965924 0 -0.258825)
(-0 -1 0)
(-0.906304 0 -0.422626)
(0 1 0)
(-0.906304 0 -0.422626)
(-0 -1 0)
(-0.819174 0 -0.573545)
(0 1 0)
(-0.819174 0 -0.573545)
(-0 -1 0)
(-0.707061 0 -0.707152)
(0 1 0)
(-0.707061 0 -0.707152)
(-0 -1 0)
(-0.573573 0 -0.819154)
(0 1 0)
(-0.573573 0 -0.819154)
(-0 -1 0)
(-0.422675 0 -0.906281)
(0 1 0)
(-0.422675 0 -0.906281)
(-0 -1 0)
(-0.258842 0 -0.96592)
(0 1 0)
(-0.258842 0 -0.96592)
(-0 -1 0)
(-0.0870902 0 -0.9962)
(0 1 0)
(-0.0870902 0 -0.9962)
(0.0870895 0 -0.9962)
(0 1 0)
(-0 1 0)
(-0.707089 -0 -0.707125)
(-0 1 0)
(-0.819161 -0 -0.573564)
(-0 1 0)
(-0.906308 -0 -0.422618)
(-0 1 0)
(-0.965929 -0 -0.258807)
(-0 1 0)
(-0.996194 -0 -0.087167)
(-0 1 0)
(-0.996194 0 0.0871657)
(0 1 0)
(-0.965928 0 0.258811)
(0 1 0)
(-0.906308 0 0.422618)
(0 1 0)
(-0.819161 0 0.573564)
(0 1 0)
(-0.707089 0 0.707125)
(0 1 0)
(-0.573565 0 0.81916)
(0 1 0)
(-0.422615 0 0.906309)
(0 1 0)
(-0.258876 0 0.965911)
(0 1 0)
(-0.0871289 0 0.996197)
(0 1 0)
(0.0871295 0 0.996197)
(0 1 0)
(0.258872 0 0.965912)
(0 1 0)
(0.422618 0 0.906308)
(0 1 0)
(0.573568 0 0.819158)
(0 1 0)
(0.707081 0 0.707132)
(0 1 0)
(0.819164 0 0.573559)
(0 1 0)
(0.906305 0 0.422624)
(0 1 0)
(0.965926 0 0.258818)
(0 1 0)
(0.996195 0 0.0871512)
(0 1 -0)
(0.996195 0 -0.0871525)
(0 1 -0)
(0.965927 0 -0.258814)
(0 1 -0)
(0.906305 0 -0.422624)
(0 1 -0)
(0.819164 0 -0.573559)
(0 1 -0)
(0.707081 0 -0.707132)
(0 1 -0)
(0.573568 0 -0.819158)
(0 1 -0)
(0.422618 0 -0.906308)
(0 1 -0)
(0.258872 0 -0.965912)
(0 1 -0)
(0.0871295 0 -0.996197)
(-0 1 0)
(-0.0871289 -0 -0.996197)
(-0 1 0)
(-0.258876 -0 -0.965911)
(-0 1 0)
(-0.422615 -0 -0.906309)
(-0 1 0)
(-0.573565 -0 -0.81916)
(0 -1 0)
(-0.819161 0 0.573564)
(0 -1 0)
(-0.906308 0 0.422618)
(0 -1 0)
(-0.965928 0 0.258811)
(0 -1 0)
(-0.996194 0 0.0871657)
(0 -1 0)
(-0.996194 -0 -0.087167)
(0 -1 0)
(-0.965929 -0 -0.258807)
(0 -1 0)
(-0.906308 -0 -0.422618)
(0 -1 0)
(-0.819161 -0 -0.573564)
(0 -1 0)
(-0.707089 -0 -0.707125)
(0 -1 0)
(-0.573565 -0 -0.81916)
(0 -1 0)
(-0.422615 -0 -0.906309)
(0 -1 0)
(-0.258876 -0 -0.965911)
(0 -1 0)
(-0.0871289 -0 -0.996197)
(0.0871295 0 -0.996197)
(-0 -1 0)
(0.258872 0 -0.965912)
(-0 -1 0)
(0.422618 0 -0.906308)
(-0 -1 0)
(0.573568 0 -0.819158)
(-0 -1 0)
(0.707081 0 -0.707132)
(-0 -1 0)
(0.819164 0 -0.573559)
(-0 -1 0)
(0.906305 0 -0.422624)
(-0 -1 0)
(0.965927 0 -0.258814)
(-0 -1 0)
(0.996195 0 -0.0871525)
(-0 -1 -0)
(0.996195 0 0.0871512)
(0 -1 -0)
(0.965926 0 0.258818)
(0 -1 -0)
(0.906305 0 0.422624)
(0 -1 -0)
(0.819164 0 0.573559)
(0 -1 -0)
(0.707081 0 0.707132)
(0 -1 -0)
(0.573568 0 0.819158)
(0 -1 -0)
(0.422618 0 0.906308)
(0 -1 -0)
(0.258872 0 0.965912)
(0 -1 -0)
(0.0871295 0 0.996197)
(-0.0871289 0 0.996197)
(0 -1 0)
(-0.258876 0 0.965911)
(0 -1 0)
(-0.422615 0 0.906309)
(0 -1 0)
(-0.573565 0 0.81916)
(0 -1 0)
(-0.707089 0 0.707125)
)

// normal volume types

632
(
0
0
0
0
0
0
0
0
0
0
0
0
0
0
0
0
0
0
0
0
0
0
0
0
0
0
0
0
0
0
0
0
0
0
0
0
0
0
0
0
0
0
0
0
0
0
0
0
0
0
0
0
0
0
0
0
0
0
0
0
0
0
0
0
0
0
0
0
0
0
0
0
0
0
0
0
0
0
0
0
0
0
0
0
0
0
0
0
0
0
0
0
0
0
0
0
0
0
0
0
0
0
0
0
0
0
0
0
0
0
0
0
0
0
0
0
0
0
0
0
0
0
0
0
0
0
0
0
0
0
0
0
0
0
0
0
0
0
0
0
0
0
0
0
0
0
0
0
0
0
0
0
0
0
0
0
0
0
0
0
0
0
0
0
0
0
0
0
0
0
0
0
0
0
0
0
0
0
0
0
0
0
0
0
0
0
0
0
0
0
0
0
0
0
0
0
0
0
0
0
0
0
0
0
0
0
0
0
0
0
0
0
0
0
0
0
0
0
0
0
0
0
0
0
0
0
0
0
0
0
0
0
0
0
0
0
0
0
0
0
0
0
0
0
0
0
0
0
0
0
0
0
0
0
0
0
0
0
0
0
0
0
0
0
0
0
0
0
0
0
0
0
0
0
0
0
0
0
0
0
0
0
0
0
0
0
0
0
0
0
0
0
0
0
0
0
0
0
0
0
0
0
0
0
0
0
0
0
0
0
0
0
0
0
0
0
0
0
0
0
0
0
0
0
0
0
0
0
0
0
0
0
0
0
0
0
0
0
0
0
0
0
0
0
0
0
0
0
0
0
0
0
0
0
0
0
0
0
0
0
0
0
0
0
0
0
0
0
0
0
0
0
0
0
0
0
0
0
0
0
0
0
0
0
0
0
0
0
0
0
0
0
0
0
0
0
0
0
0
0
0
0
0
0
0
0
0
0
0
0
0
0
0
0
0
0
0
0
0
0
0
0
0
0
0
0
0
0
0
0
0
0
0
0
0
0
0
0
0
0
0
0
0
0
0
0
0
0
0
0
0
0
0
0
0
0
0
0
0
0
0
0
0
0
0
0
0
0
0
0
0
0
0
0
0
0
0
0
0
0
0
0
0
0
0
0
0
0
0
0
0
0
0
0
0
0
0
0
0
0
0
0
0
0
0
0
0
0
0
0
0
0
0
0
0
0
0
0
0
0
0
0
0
0
0
0
0
0
0
0
0
0
0
0
0
0
0
0
0
0
0
0
0
0
0
0
0
0
0
0
0
0
0
0
0
0
0
0
0
0
0
0
0
0
0
0
0
0
0
0
0
0
0
0
0
0
0
0
0
0
0
0
0
0
0
0
0
0
0
0
0
0
0
0
0
0
0
0
0
0
0
0
0
0
0
0
0
0
0
0
0
0
0
0
0
0
0
0
0
0
0
0
0
0
0
0
0
0
0
0
0
0
)

// normalDirections

318
(
2(1 -1)
2(1 -1)
2(1 -1)
2(1 -1)
2(1 -1)
2(1 -1)
2(1 -1)
2(1 -1)
2(1 -1)
2(1 -1)
2(1 -1)
2(1 -1)
2(1 -1)
2(1 -1)
2(1 -1)
2(1 -1)
2(1 -1)
2(1 -1)
2(1 -1)
2(1 -1)
2(1 -1)
2(1 -1)
2(1 -1)
2(1 -1)
2(1 -1)
2(1 -1)
2(1 -1)
2(1 -1)
2(1 -1)
2(1 -1)
2(1 -1)
2(1 -1)
2(1 -1)
2(1 -1)
2(1 -1)
2(1 -1)
2(1 -1)
2(1 -1)
2(1 -1)
2(1 -1)
2(1 -1)
2(1 -1)
2(1 -1)
2(1 -1)
2(1 -1)
2(1 -1)
2(1 -1)
2(1 -1)
2(1 -1)
2(1 -1)
2(1 -1)
2(1 -1)
2(1 -1)
2(1 -1)
2(1 -1)
2(1 -1)
2(1 -1)
2(1 -1)
2(1 -1)
2(1 -1)
2(1 -1)
2(1 -1)
2(1 -1)
2(1 -1)
2(1 -1)
2(1 -1)
2(1 -1)
2(1 -1)
2(1 -1)
2(1 -1)
2(1 -1)
2(1 -1)
2(1 -1)
2(1 -1)
2(1 -1)
2(1 -1)
2(1 -1)
2(1 -1)
2(1 -1)
2(1 -1)
2(1 -1)
2(1 -1)
2(1 -1)
2(1 -1)
2(1 -1)
2(1 -1)
2(1 -1)
2(1 -1)
2(1 -1)
2(1 -1)
2(1 -1)
2(1 -1)
2(1 -1)
2(1 -1)
2(1 -1)
2(1 -1)
2(1 -1)
2(1 -1)
2(1 -1)
2(1 -1)
2(1 -1)
2(1 -1)
2(1 -1)
2(1 -1)
2(1 -1)
2(1 -1)
2(1 -1)
2(1 -1)
2(1 -1)
2(1 -1)
2(1 -1)
2(1 -1)
2(1 -1)
2(1 -1)
2(1 -1)
2(1 -1)
2(1 -1)
2(1 -1)
2(1 -1)
2(1 -1)
2(1 -1)
2(1 -1)
2(1 -1)
2(1 -1)
2(1 -1)
2(1 -1)
2(1 -1)
2(1 -1)
2(1 -1)
2(1 -1)
2(1 -1)
2(1 -1)
2(1 -1)
2(1 -1)
2(1 -1)
2(1 -1)
2(1 -1)
2(1 -1)
2(1 -1)
2(1 -1)
2(1 -1)
2(1 -1)
2(1 -1)
2(1 -1)
2(1 -1)
2(1 -1)
2(1 -1)
2(1 -1)
2(1 -1)
2(1 -1)
2(1 -1)
2(1 -1)
2(1 -1)
2(1 -1)
2(1 -1)
2(1 -1)
2(1 -1)
2(1 -1)
2(1 -1)
2(1 -1)
2(1 -1)
2(1 -1)
2(1 -1)
2(1 -1)
2(1 -1)
2(1 -1)
2(1 -1)
2(1 -1)
2(1 -1)
2(1 -1)
2(1 -1)
2(1 -1)
2(1 -1)
2(1 -1)
2(1 -1)
2(1 -1)
2(1 -1)
2(1 -1)
2(1 -1)
2(1 -1)
2(1 -1)
2(1 -1)
2(1 -1)
2(1 -1)
2(1 -1)
2(1 -1)
2(1 -1)
2(1 -1)
2(1 -1)
2(1 -1)
2(1 -1)
2(1 -1)
2(1 -1)
2(1 -1)
2(1 -1)
2(1 -1)
2(1 -1)
2(1 -1)
2(1 -1)
2(1 -1)
2(1 -1)
2(1 -1)
2(1 -1)
2(1 -1)
2(1 -1)
2(1 -1)
2(1 -1)
2(1 -1)
2(1 -1)
2(1 -1)
2(1 -1)
2(1 -1)
2(1 -1)
2(1 -1)
2(1 -1)
2(1 -1)
2(1 -1)
2(1 -1)
2(1 -1)
2(1 -1)
2(1 -1)
2(1 -1)
2(1 -1)
2(1 -1)
2(1 -1)
2(1 -1)
2(1 -1)
2(1 -1)
2(1 -1)
2(1 -1)
2(1 -1)
2(1 -1)
2(1 -1)
2(1 -1)
2(1 -1)
2(1 -1)
2(1 -1)
2(1 -1)
2(1 -1)
2(1 -1)
2(1 -1)
2(1 -1)
2(1 -1)
2(1 -1)
2(1 -1)
2(1 -1)
2(1 -1)
2(1 -1)
2(1 -1)
2(1 -1)
2(1 -1)
2(1 -1)
2(1 -1)
2(1 -1)
2(1 -1)
2(1 -1)
2(1 -1)
2(1 -1)
2(1 -1)
2(1 -1)
2(1 -1)
2(1 -1)
2(1 -1)
2(1 -1)
2(1 -1)
2(1 -1)
2(1 -1)
2(1 -1)
2(1 -1)
2(1 -1)
2(1 -1)
2(1 -1)
2(1 -1)
2(1 -1)
2(1 -1)
2(1 -1)
2(1 -1)
2(1 -1)
2(1 -1)
2(1 -1)
2(1 -1)
2(1 -1)
2(1 -1)
2(1 -1)
2(1 -1)
2(1 -1)
2(1 -1)
2(1 -1)
2(1 -1)
2(1 -1)
2(1 -1)
2(1 -1)
2(1 -1)
2(1 -1)
2(1 -1)
2(1 -1)
2(1 -1)
2(1 -1)
2(1 -1)
2(1 -1)
2(1 -1)
2(1 -1)
2(1 -1)
2(1 -1)
2(1 -1)
2(1 -1)
2(1 -1)
2(1 -1)
2(1 -1)
2(1 -1)
2(1 -1)
2(1 -1)
2(1 -1)
2(1 -1)
2(1 -1)
2(1 -1)
4(1 -1 -1 1)
4(1 -1 -1 1)
)

// edgeNormals

318
(
2(8 2)
2(9 10)
2(11 0)
2(12 13)
2(14 15)
2(16 17)
2(18 19)
2(20 21)
2(22 23)
2(24 25)
2(26 27)
2(28 29)
2(30 31)
2(32 33)
2(34 35)
2(36 37)
2(38 39)
2(40 41)
2(42 43)
2(44 45)
2(46 47)
2(48 49)
2(50 51)
2(52 53)
2(54 55)
2(56 57)
2(58 59)
2(60 61)
2(62 63)
2(64 65)
2(66 67)
2(68 69)
2(70 71)
2(72 73)
2(74 75)
2(76 77)
2(78 79)
2(80 81)
2(82 83)
2(84 85)
2(86 87)
2(88 89)
2(90 91)
2(92 93)
2(94 95)
2(96 4)
2(97 98)
2(99 100)
2(101 102)
2(103 104)
2(105 106)
2(107 108)
2(109 110)
2(111 112)
2(113 114)
2(115 116)
2(117 118)
2(119 120)
2(121 122)
2(123 124)
2(125 126)
2(127 128)
2(129 130)
2(131 132)
2(133 134)
2(135 136)
2(137 138)
2(139 140)
2(141 142)
2(143 144)
2(145 146)
2(147 148)
2(149 150)
2(151 152)
2(153 154)
2(155 156)
2(157 158)
2(159 160)
2(161 162)
2(163 164)
2(165 166)
2(167 168)
2(169 170)
2(171 172)
2(173 174)
2(175 176)
2(177 178)
2(179 180)
2(181 182)
2(183 184)
2(185 186)
2(187 188)
2(189 190)
2(191 192)
2(193 194)
2(195 196)
2(197 198)
2(199 200)
2(201 202)
2(203 204)
2(205 206)
2(207 208)
2(209 210)
2(211 212)
2(213 214)
2(215 216)
2(217 218)
2(219 220)
2(221 222)
2(6 223)
2(224 225)
2(226 227)
2(228 229)
2(230 231)
2(232 233)
2(234 235)
2(236 237)
2(238 239)
2(240 241)
2(242 243)
2(244 245)
2(246 247)
2(248 249)
2(250 251)
2(252 253)
2(254 255)
2(256 257)
2(258 259)
2(260 261)
2(262 263)
2(264 265)
2(266 267)
2(268 269)
2(270 271)
2(272 273)
2(274 275)
2(276 277)
2(278 279)
2(280 281)
2(282 283)
2(284 285)
2(286 287)
2(288 289)
2(290 291)
2(292 293)
2(294 295)
2(296 297)
2(298 299)
2(300 301)
2(302 303)
2(304 305)
2(306 307)
2(308 309)
2(310 311)
2(312 313)
2(314 315)
2(316 317)
2(318 319)
2(320 321)
2(322 323)
2(324 325)
2(326 327)
2(328 329)
2(330 331)
2(332 333)
2(334 335)
2(336 337)
2(338 339)
2(340 341)
2(342 343)
2(344 345)
2(346 347)
2(348 349)
2(350 351)
2(352 353)
2(354 355)
2(356 357)
2(358 359)
2(360 361)
2(362 363)
2(364 365)
2(366 367)
2(368 369)
2(370 371)
2(372 373)
2(374 375)
2(376 377)
2(378 379)
2(380 381)
2(382 383)
2(384 385)
2(386 387)
2(388 389)
2(390 391)
2(392 393)
2(394 395)
2(396 397)
2(398 399)
2(400 401)
2(402 403)
2(404 405)
2(406 407)
2(408 409)
2(410 411)
2(412 413)
2(414 415)
2(416 3)
2(417 418)
2(419 420)
2(421 422)
2(423 424)
2(425 426)
2(427 428)
2(429 430)
2(431 432)
2(433 434)
2(435 436)
2(437 438)
2(439 440)
2(441 442)
2(443 444)
2(445 446)
2(447 448)
2(449 450)
2(451 452)
2(453 454)
2(455 456)
2(457 458)
2(459 460)
2(461 462)
2(463 464)
2(465 466)
2(467 468)
2(469 470)
2(471 472)
2(473 474)
2(475 476)
2(477 478)
2(479 480)
2(481 482)
2(483 484)
2(485 486)
2(487 7)
2(488 489)
2(490 491)
2(492 493)
2(494 495)
2(496 497)
2(498 499)
2(500 501)
2(502 503)
2(504 505)
2(506 507)
2(508 509)
2(510 511)
2(512 513)
2(514 515)
2(516 517)
2(518 519)
2(520 521)
2(522 523)
2(524 525)
2(526 527)
2(528 529)
2(530 531)
2(532 533)
2(534 535)
2(536 537)
2(538 539)
2(540 541)
2(542 543)
2(544 545)
2(546 547)
2(548 549)
2(550 551)
2(552 553)
2(554 555)
2(556 557)
2(558 559)
2(560 561)
2(562 563)
2(564 565)
2(566 567)
2(568 569)
2(570 571)
2(572 573)
2(574 575)
2(576 577)
2(578 579)
2(580 581)
2(582 583)
2(584 585)
2(586 587)
2(1 588)
2(589 590)
2(591 592)
2(593 594)
2(595 596)
2(597 598)
2(599 600)
2(601 602)
2(603 604)
2(605 606)
2(607 608)
2(609 610)
2(611 612)
2(613 614)
2(615 616)
2(617 618)
2(619 620)
2(621 622)
2(5 623)
2(624 625)
2(626 627)
2(628 629)
2(630 631)
4(0 1 2 3)
4(4 5 6 7)
)

// featurePointNormals

8
(
6(193 194 196 574 575 577)
6(207 208 210 562 563 565)
6(234 235 237 609 610 612)
6(248 249 251 597 598 600)
6(8 2 11 416 3 419)
6(92 93 96 348 349 487)
6(181 182 263 586 587 588)
6(221 222 223 621 622 623)
)

// featurePointEdges

8
(
4(94 95 286 287)
4(101 102 280 281)
4(115 116 304 305)
4(122 123 298 299)
5(0 2 316 206 208)
5(43 45 317 172 242)
5(316 88 129 292 293)
5(108 317 109 310 311)
)

// regionEdges
2(316 317)


// ************************************************************************* //
