/*--------------------------------*- C++ -*----------------------------------*\
  =========                 |
  \\      /  F ield         | OpenFOAM: The Open Source CFD Toolbox
   \\    /   O peration     | Website:  https://openfoam.org
    \\  /    A nd           | Version:  9
     \\/     M anipulation  |
\*---------------------------------------------------------------------------*/
FoamFile
{
    format      ascii;
    class       extendedFeatureEdgeMesh;
    location    "constant/extendedFeatureEdgeMesh";
    object      inlet.extendedFeatureEdgeMesh;
}
// * * * * * * * * * * * * * * * * * * * * * * * * * * * * * * * * * * * * * //

// points

1056
(
(620.177 209.301 1111.15)
(619.654 209.301 1111.12)
(620.177 211.801 1111.15)
(620.693 211.801 1111.24)
(620.693 209.301 1111.24)
(621.198 211.801 1111.38)
(621.198 209.301 1111.38)
(621.685 211.801 1111.57)
(621.685 209.301 1111.57)
(622.15 211.801 1111.81)
(622.15 209.301 1111.81)
(622.588 211.801 1112.1)
(622.588 209.301 1112.1)
(622.992 211.801 1112.43)
(622.992 209.301 1112.43)
(623.36 211.801 1112.8)
(623.36 209.301 1112.8)
(623.687 211.801 1113.21)
(623.687 209.301 1113.21)
(623.969 211.801 1113.65)
(623.969 209.301 1113.65)
(624.204 211.801 1114.12)
(624.204 209.301 1114.12)
(624.389 211.801 1114.61)
(624.389 209.301 1114.61)
(624.521 211.801 1115.11)
(624.521 209.301 1115.11)
(624.6 211.801 1115.63)
(624.6 209.301 1115.63)
(624.624 211.801 1116.15)
(624.624 209.301 1116.15)
(624.593 211.801 1116.68)
(624.593 209.301 1116.68)
(624.508 211.801 1117.19)
(624.508 209.301 1117.19)
(624.37 211.801 1117.7)
(624.37 209.301 1117.7)
(624.179 211.801 1118.19)
(624.179 209.301 1118.19)
(623.939 211.801 1118.65)
(623.939 209.301 1118.65)
(623.651 211.801 1119.09)
(623.651 209.301 1119.09)
(623.319 211.801 1119.49)
(623.319 209.301 1119.49)
(622.947 211.801 1119.86)
(622.947 209.301 1119.86)
(622.538 211.801 1120.19)
(622.538 209.301 1120.19)
(622.098 211.801 1120.47)
(622.098 209.301 1120.47)
(621.63 211.801 1120.7)
(621.63 209.301 1120.7)
(621.14 211.801 1120.89)
(621.14 209.301 1120.89)
(620.634 211.801 1121.02)
(620.634 209.301 1121.02)
(620.117 211.801 1121.1)
(620.117 209.301 1121.1)
(619.594 211.801 1121.12)
(619.594 209.301 1121.12)
(619.071 211.801 1121.09)
(619.071 209.301 1121.09)
(618.555 211.801 1121.01)
(618.555 209.301 1121.01)
(618.05 211.801 1120.87)
(618.05 209.301 1120.87)
(617.563 211.801 1120.68)
(617.563 209.301 1120.68)
(617.098 211.801 1120.44)
(617.098 209.301 1120.44)
(616.661 211.801 1120.15)
(616.661 209.301 1120.15)
(616.256 211.801 1119.82)
(616.256 209.301 1119.82)
(615.888 211.801 1119.45)
(615.888 209.301 1119.45)
(615.561 211.801 1119.04)
(615.561 209.301 1119.04)
(615.279 211.801 1118.6)
(615.279 209.301 1118.6)
(615.044 211.801 1118.13)
(615.044 209.301 1118.13)
(614.859 211.801 1117.64)
(614.859 209.301 1117.64)
(614.727 211.801 1117.13)
(614.727 209.301 1117.13)
(614.648 211.801 1116.62)
(614.648 209.301 1116.62)
(614.624 211.801 1116.09)
(614.624 209.301 1116.09)
(614.655 211.801 1115.57)
(614.655 209.301 1115.57)
(614.74 211.801 1115.06)
(614.74 209.301 1115.06)
(614.878 211.801 1114.55)
(614.878 209.301 1114.55)
(615.069 211.801 1114.06)
(615.069 209.301 1114.06)
(615.309 211.801 1113.6)
(615.309 209.301 1113.6)
(615.597 211.801 1113.16)
(615.597 209.301 1113.16)
(615.929 211.801 1112.76)
(615.929 209.301 1112.76)
(616.301 211.801 1112.39)
(616.301 209.301 1112.39)
(616.71 211.801 1112.06)
(616.71 209.301 1112.06)
(617.15 211.801 1111.78)
(617.15 209.301 1111.78)
(617.618 211.801 1111.54)
(617.618 209.301 1111.54)
(618.108 211.801 1111.36)
(618.108 209.301 1111.36)
(618.614 211.801 1111.23)
(618.614 209.301 1111.23)
(619.132 211.801 1111.15)
(619.132 209.301 1111.15)
(619.654 211.801 1111.12)
(619.678 211.801 1114.37)
(619.635 211.801 1114.37)
(619.598 211.801 1120.37)
(619.555 211.801 1120.37)
(619.645 211.801 1119.88)
(619.687 211.801 1119.89)
(619.79 211.801 1120.29)
(619.759 211.801 1120.32)
(619.513 211.801 1120.36)
(619.474 211.801 1120.34)
(619.438 211.801 1120.31)
(619.407 211.801 1120.28)
(619.383 211.801 1120.25)
(619.364 211.801 1120.21)
(619.365 211.801 1120.04)
(619.384 211.801 1120)
(619.409 211.801 1119.96)
(619.44 211.801 1119.93)
(619.476 211.801 1119.91)
(619.353 211.801 1120.17)
(619.35 211.801 1120.12)
(619.354 211.801 1120.08)
(619.516 211.801 1119.89)
(619.558 211.801 1119.88)
(619.601 211.801 1119.87)
(619.726 211.801 1119.91)
(619.762 211.801 1119.93)
(619.792 211.801 1119.96)
(619.85 211.801 1120.12)
(619.846 211.801 1120.17)
(619.724 211.801 1120.34)
(619.684 211.801 1120.36)
(619.642 211.801 1120.37)
(619.817 211.801 1120)
(619.835 211.801 1120.04)
(619.846 211.801 1120.08)
(619.834 211.801 1120.21)
(619.816 211.801 1120.25)
(623.39 211.801 1116.06)
(623.408 211.801 1116.02)
(623.858 211.801 1116.23)
(623.84 211.801 1116.27)
(623.786 211.801 1115.96)
(623.817 211.801 1115.99)
(623.815 211.801 1116.31)
(623.784 211.801 1116.34)
(623.87 211.801 1116.19)
(623.874 211.801 1116.15)
(623.748 211.801 1116.36)
(623.708 211.801 1116.38)
(623.666 211.801 1116.4)
(623.579 211.801 1116.39)
(623.537 211.801 1116.38)
(623.841 211.801 1116.02)
(623.859 211.801 1116.06)
(623.87 211.801 1116.11)
(623.432 211.801 1116.31)
(623.407 211.801 1116.27)
(623.389 211.801 1116.23)
(623.378 211.801 1116.19)
(623.374 211.801 1116.15)
(623.378 211.801 1116.1)
(623.433 211.801 1115.99)
(623.464 211.801 1115.96)
(623.5 211.801 1115.93)
(623.622 211.801 1116.4)
(623.498 211.801 1116.36)
(623.462 211.801 1116.34)
(623.669 211.801 1115.9)
(623.711 211.801 1115.91)
(623.75 211.801 1115.93)
(623.54 211.801 1115.91)
(623.582 211.801 1115.9)
(623.625 211.801 1115.9)
(621.396 211.801 1118.01)
(621.421 211.801 1117.97)
(621.452 211.801 1117.94)
(621.488 211.801 1117.92)
(621.528 211.801 1117.9)
(621.57 211.801 1117.89)
(621.613 211.801 1117.89)
(621.696 211.801 1118.37)
(621.654 211.801 1118.38)
(621.61 211.801 1118.39)
(621.567 211.801 1118.38)
(621.525 211.801 1118.37)
(621.486 211.801 1118.35)
(621.45 211.801 1118.33)
(621.419 211.801 1118.3)
(621.657 211.801 1117.89)
(621.699 211.801 1117.9)
(621.738 211.801 1117.92)
(621.774 211.801 1117.94)
(621.804 211.801 1117.98)
(621.829 211.801 1118.01)
(621.847 211.801 1118.05)
(621.858 211.801 1118.09)
(621.862 211.801 1118.14)
(621.858 211.801 1118.18)
(621.846 211.801 1118.22)
(621.828 211.801 1118.26)
(621.802 211.801 1118.3)
(621.771 211.801 1118.33)
(621.736 211.801 1118.35)
(621.395 211.801 1118.26)
(621.377 211.801 1118.22)
(621.365 211.801 1118.18)
(621.362 211.801 1118.13)
(621.366 211.801 1118.09)
(621.378 211.801 1118.05)
(621.87 211.801 1116.18)
(621.858 211.801 1116.22)
(621.498 211.801 1116.35)
(621.462 211.801 1116.33)
(621.84 211.801 1116.26)
(621.815 211.801 1116.3)
(621.784 211.801 1116.33)
(621.39 211.801 1116.05)
(621.408 211.801 1116.01)
(621.433 211.801 1115.97)
(621.464 211.801 1115.94)
(621.5 211.801 1115.92)
(621.669 211.801 1115.89)
(621.711 211.801 1115.9)
(621.75 211.801 1115.92)
(621.786 211.801 1115.94)
(621.817 211.801 1115.98)
(621.841 211.801 1116.01)
(621.859 211.801 1116.05)
(621.87 211.801 1116.09)
(621.874 211.801 1116.14)
(621.54 211.801 1115.9)
(621.582 211.801 1115.89)
(621.626 211.801 1115.89)
(621.666 211.801 1116.38)
(621.622 211.801 1116.39)
(621.579 211.801 1116.38)
(621.537 211.801 1116.37)
(621.432 211.801 1116.3)
(621.407 211.801 1116.26)
(621.389 211.801 1116.22)
(621.378 211.801 1116.18)
(621.374 211.801 1116.13)
(621.378 211.801 1116.09)
(621.748 211.801 1116.35)
(621.708 211.801 1116.37)
(621.681 211.801 1113.89)
(621.723 211.801 1113.9)
(621.763 211.801 1113.92)
(621.798 211.801 1113.94)
(621.829 211.801 1113.98)
(621.853 211.801 1114.01)
(621.882 211.801 1114.18)
(621.871 211.801 1114.22)
(621.852 211.801 1114.26)
(621.827 211.801 1114.3)
(621.796 211.801 1114.33)
(621.76 211.801 1114.35)
(621.72 211.801 1114.37)
(621.549 211.801 1114.37)
(621.51 211.801 1114.35)
(621.39 211.801 1114.09)
(621.402 211.801 1114.05)
(621.42 211.801 1114.01)
(621.513 211.801 1113.92)
(621.552 211.801 1113.9)
(621.594 211.801 1113.89)
(621.638 211.801 1113.89)
(621.872 211.801 1114.05)
(621.883 211.801 1114.09)
(621.886 211.801 1114.14)
(621.678 211.801 1114.38)
(621.635 211.801 1114.39)
(621.591 211.801 1114.38)
(621.446 211.801 1113.97)
(621.477 211.801 1113.94)
(621.474 211.801 1114.33)
(621.444 211.801 1114.3)
(621.419 211.801 1114.26)
(621.401 211.801 1114.22)
(621.39 211.801 1114.18)
(621.386 211.801 1114.13)
(619.61 211.801 1118.37)
(619.567 211.801 1118.37)
(619.525 211.801 1118.36)
(619.486 211.801 1118.34)
(619.45 211.801 1118.31)
(619.657 211.801 1117.88)
(619.699 211.801 1117.89)
(619.738 211.801 1117.91)
(619.774 211.801 1117.93)
(619.614 211.801 1117.87)
(619.57 211.801 1117.88)
(619.654 211.801 1118.37)
(619.378 211.801 1118.04)
(619.396 211.801 1118)
(619.421 211.801 1117.96)
(619.452 211.801 1117.93)
(619.488 211.801 1117.91)
(619.528 211.801 1117.89)
(619.804 211.801 1117.96)
(619.829 211.801 1118)
(619.847 211.801 1118.04)
(619.858 211.801 1118.08)
(619.419 211.801 1118.28)
(619.395 211.801 1118.25)
(619.377 211.801 1118.21)
(619.862 211.801 1118.12)
(619.858 211.801 1118.17)
(619.846 211.801 1118.21)
(619.828 211.801 1118.25)
(619.802 211.801 1118.29)
(619.771 211.801 1118.32)
(619.736 211.801 1118.34)
(619.696 211.801 1118.36)
(619.365 211.801 1118.17)
(619.362 211.801 1118.12)
(619.366 211.801 1118.08)
(619.748 211.801 1116.34)
(619.708 211.801 1116.36)
(619.39 211.801 1116.04)
(619.408 211.801 1116)
(619.433 211.801 1115.96)
(619.464 211.801 1115.93)
(619.623 211.801 1116.37)
(619.579 211.801 1116.37)
(619.666 211.801 1116.37)
(619.537 211.801 1116.36)
(619.498 211.801 1116.34)
(619.462 211.801 1116.31)
(619.432 211.801 1116.28)
(619.407 211.801 1116.25)
(619.389 211.801 1116.21)
(619.378 211.801 1116.17)
(619.374 211.801 1116.12)
(619.378 211.801 1116.08)
(619.5 211.801 1115.91)
(619.54 211.801 1115.89)
(619.582 211.801 1115.88)
(619.626 211.801 1115.87)
(619.669 211.801 1115.88)
(619.711 211.801 1115.89)
(619.75 211.801 1115.91)
(619.87 211.801 1116.08)
(619.874 211.801 1116.12)
(619.859 211.801 1116.04)
(619.841 211.801 1116)
(619.87 211.801 1116.17)
(619.859 211.801 1116.21)
(619.84 211.801 1116.25)
(619.786 211.801 1115.93)
(619.817 211.801 1115.96)
(619.815 211.801 1116.29)
(619.784 211.801 1116.32)
(619.638 211.801 1113.87)
(619.681 211.801 1113.88)
(619.42 211.801 1114)
(619.446 211.801 1113.96)
(619.477 211.801 1113.93)
(619.513 211.801 1113.91)
(619.723 211.801 1113.89)
(619.763 211.801 1113.91)
(619.798 211.801 1113.93)
(619.591 211.801 1114.37)
(619.829 211.801 1113.96)
(619.854 211.801 1114)
(619.872 211.801 1114.04)
(619.871 211.801 1114.21)
(619.852 211.801 1114.25)
(619.827 211.801 1114.29)
(619.796 211.801 1114.32)
(619.549 211.801 1114.36)
(619.51 211.801 1114.34)
(619.474 211.801 1114.31)
(619.552 211.801 1113.89)
(619.594 211.801 1113.88)
(619.883 211.801 1114.08)
(619.886 211.801 1114.12)
(619.882 211.801 1114.17)
(619.76 211.801 1114.34)
(619.72 211.801 1114.36)
(619.444 211.801 1114.28)
(619.419 211.801 1114.25)
(619.401 211.801 1114.21)
(619.39 211.801 1114.17)
(619.386 211.801 1114.12)
(619.39 211.801 1114.08)
(619.402 211.801 1114.04)
(619.647 211.801 1112.37)
(619.603 211.801 1112.37)
(619.808 211.801 1112.32)
(619.772 211.801 1112.34)
(619.561 211.801 1112.36)
(619.522 211.801 1112.34)
(619.487 211.801 1112.31)
(619.525 211.801 1111.91)
(619.564 211.801 1111.89)
(619.735 211.801 1111.89)
(619.775 211.801 1111.91)
(619.81 211.801 1111.93)
(619.732 211.801 1112.36)
(619.69 211.801 1112.37)
(619.413 211.801 1112.21)
(619.402 211.801 1112.17)
(619.606 211.801 1111.88)
(619.65 211.801 1111.87)
(619.693 211.801 1111.88)
(619.402 211.801 1112.08)
(619.414 211.801 1112.04)
(619.433 211.801 1112)
(619.841 211.801 1111.96)
(619.866 211.801 1112)
(619.884 211.801 1112.04)
(619.398 211.801 1112.12)
(619.458 211.801 1111.96)
(619.489 211.801 1111.93)
(619.883 211.801 1112.21)
(619.864 211.801 1112.25)
(619.839 211.801 1112.29)
(619.456 211.801 1112.28)
(619.431 211.801 1112.25)
(619.895 211.801 1112.08)
(619.898 211.801 1112.12)
(619.894 211.801 1112.17)
(617.696 211.801 1118.35)
(617.654 211.801 1118.36)
(617.61 211.801 1118.36)
(617.567 211.801 1118.36)
(617.525 211.801 1118.35)
(617.486 211.801 1118.33)
(617.366 211.801 1118.07)
(617.378 211.801 1118.03)
(617.396 211.801 1117.98)
(617.421 211.801 1117.95)
(617.846 211.801 1118.2)
(617.828 211.801 1118.24)
(617.802 211.801 1118.27)
(617.45 211.801 1118.3)
(617.419 211.801 1118.27)
(617.395 211.801 1118.23)
(617.771 211.801 1118.3)
(617.736 211.801 1118.33)
(617.377 211.801 1118.2)
(617.365 211.801 1118.15)
(617.362 211.801 1118.11)
(617.738 211.801 1117.9)
(617.774 211.801 1117.92)
(617.699 211.801 1117.88)
(617.452 211.801 1117.92)
(617.488 211.801 1117.89)
(617.528 211.801 1117.88)
(617.57 211.801 1117.86)
(617.614 211.801 1117.86)
(617.657 211.801 1117.87)
(617.805 211.801 1117.95)
(617.829 211.801 1117.99)
(617.847 211.801 1118.03)
(617.858 211.801 1118.07)
(617.862 211.801 1118.11)
(617.858 211.801 1118.16)
(617.39 211.801 1116.03)
(617.408 211.801 1115.98)
(617.498 211.801 1116.33)
(617.462 211.801 1116.3)
(617.623 211.801 1116.36)
(617.579 211.801 1116.36)
(617.537 211.801 1116.35)
(617.432 211.801 1116.27)
(617.407 211.801 1116.23)
(617.389 211.801 1116.2)
(617.378 211.801 1116.15)
(617.374 211.801 1116.11)
(617.378 211.801 1116.07)
(617.669 211.801 1115.87)
(617.711 211.801 1115.88)
(617.75 211.801 1115.9)
(617.434 211.801 1115.95)
(617.465 211.801 1115.92)
(617.5 211.801 1115.89)
(617.786 211.801 1115.92)
(617.817 211.801 1115.95)
(617.841 211.801 1115.99)
(617.666 211.801 1116.36)
(617.708 211.801 1116.35)
(617.54 211.801 1115.88)
(617.582 211.801 1115.86)
(617.626 211.801 1115.86)
(617.859 211.801 1116.03)
(617.871 211.801 1116.07)
(617.874 211.801 1116.11)
(617.87 211.801 1116.16)
(617.859 211.801 1116.2)
(617.84 211.801 1116.24)
(617.815 211.801 1116.27)
(617.784 211.801 1116.3)
(617.748 211.801 1116.33)
(617.723 211.801 1113.88)
(617.763 211.801 1113.9)
(617.798 211.801 1113.92)
(617.829 211.801 1113.95)
(617.76 211.801 1114.33)
(617.72 211.801 1114.35)
(617.549 211.801 1114.35)
(617.51 211.801 1114.33)
(617.854 211.801 1113.99)
(617.872 211.801 1114.03)
(617.883 211.801 1114.07)
(617.886 211.801 1114.11)
(617.678 211.801 1114.36)
(617.635 211.801 1114.36)
(617.591 211.801 1114.36)
(617.39 211.801 1114.07)
(617.402 211.801 1114.03)
(617.42 211.801 1113.98)
(617.446 211.801 1113.95)
(617.477 211.801 1113.92)
(617.513 211.801 1113.89)
(617.552 211.801 1113.88)
(617.882 211.801 1114.16)
(617.871 211.801 1114.2)
(617.852 211.801 1114.24)
(617.474 211.801 1114.3)
(617.444 211.801 1114.27)
(617.419 211.801 1114.23)
(617.401 211.801 1114.2)
(617.39 211.801 1114.15)
(617.386 211.801 1114.11)
(617.594 211.801 1113.86)
(617.638 211.801 1113.86)
(617.681 211.801 1113.87)
(617.827 211.801 1114.27)
(617.796 211.801 1114.3)
(615.817 211.801 1115.94)
(615.841 211.801 1115.98)
(615.39 211.801 1116.01)
(615.408 211.801 1115.97)
(615.434 211.801 1115.94)
(615.579 211.801 1116.34)
(615.537 211.801 1116.33)
(615.498 211.801 1116.31)
(615.407 211.801 1116.22)
(615.389 211.801 1116.18)
(615.87 211.801 1116.14)
(615.859 211.801 1116.19)
(615.84 211.801 1116.23)
(615.462 211.801 1116.29)
(615.432 211.801 1116.26)
(615.378 211.801 1116.14)
(615.374 211.801 1116.1)
(615.378 211.801 1116.06)
(615.465 211.801 1115.91)
(615.5 211.801 1115.88)
(615.54 211.801 1115.86)
(615.86 211.801 1116.02)
(615.871 211.801 1116.06)
(615.874 211.801 1116.1)
(615.815 211.801 1116.26)
(615.784 211.801 1116.29)
(615.748 211.801 1116.32)
(615.708 211.801 1116.33)
(615.666 211.801 1116.35)
(615.623 211.801 1116.35)
(615.582 211.801 1115.85)
(615.626 211.801 1115.85)
(615.669 211.801 1115.85)
(615.711 211.801 1115.86)
(615.75 211.801 1115.88)
(615.786 211.801 1115.91)
(619.666 210.801 1116.37)
(619.623 210.801 1116.37)
(619.708 210.801 1116.36)
(619.748 210.801 1116.34)
(619.784 210.801 1116.32)
(619.815 210.801 1116.29)
(619.84 210.801 1116.25)
(619.859 210.801 1116.21)
(619.87 210.801 1116.17)
(619.874 210.801 1116.12)
(619.87 210.801 1116.08)
(619.859 210.801 1116.04)
(619.841 210.801 1116)
(619.817 210.801 1115.96)
(619.786 210.801 1115.93)
(619.75 210.801 1115.91)
(619.711 210.801 1115.89)
(619.669 210.801 1115.88)
(619.626 210.801 1115.87)
(619.582 210.801 1115.88)
(619.54 210.801 1115.89)
(619.5 210.801 1115.91)
(619.464 210.801 1115.93)
(619.433 210.801 1115.96)
(619.408 210.801 1116)
(619.39 210.801 1116.04)
(619.378 210.801 1116.08)
(619.374 210.801 1116.12)
(619.378 210.801 1116.17)
(619.389 210.801 1116.21)
(619.407 210.801 1116.25)
(619.432 210.801 1116.28)
(619.462 210.801 1116.31)
(619.498 210.801 1116.34)
(619.537 210.801 1116.36)
(619.579 210.801 1116.37)
(619.642 210.801 1120.37)
(619.598 210.801 1120.37)
(619.684 210.801 1120.36)
(619.724 210.801 1120.34)
(619.759 210.801 1120.32)
(619.79 210.801 1120.29)
(619.816 210.801 1120.25)
(619.834 210.801 1120.21)
(619.846 210.801 1120.17)
(619.85 210.801 1120.12)
(619.846 210.801 1120.08)
(619.835 210.801 1120.04)
(619.817 210.801 1120)
(619.792 210.801 1119.96)
(619.762 210.801 1119.93)
(619.726 210.801 1119.91)
(619.687 210.801 1119.89)
(619.645 210.801 1119.88)
(619.601 210.801 1119.87)
(619.558 210.801 1119.88)
(619.516 210.801 1119.89)
(619.476 210.801 1119.91)
(619.44 210.801 1119.93)
(619.409 210.801 1119.96)
(619.384 210.801 1120)
(619.365 210.801 1120.04)
(619.354 210.801 1120.08)
(619.35 210.801 1120.12)
(619.353 210.801 1120.17)
(619.364 210.801 1120.21)
(619.383 210.801 1120.25)
(619.407 210.801 1120.28)
(619.438 210.801 1120.31)
(619.474 210.801 1120.34)
(619.513 210.801 1120.36)
(619.555 210.801 1120.37)
(619.69 210.801 1112.37)
(619.647 210.801 1112.37)
(619.732 210.801 1112.36)
(619.772 210.801 1112.34)
(619.808 210.801 1112.32)
(619.839 210.801 1112.29)
(619.864 210.801 1112.25)
(619.883 210.801 1112.21)
(619.894 210.801 1112.17)
(619.898 210.801 1112.12)
(619.895 210.801 1112.08)
(619.884 210.801 1112.04)
(619.866 210.801 1112)
(619.841 210.801 1111.96)
(619.81 210.801 1111.93)
(619.775 210.801 1111.91)
(619.735 210.801 1111.89)
(619.693 210.801 1111.88)
(619.65 210.801 1111.87)
(619.606 210.801 1111.88)
(619.564 210.801 1111.89)
(619.525 210.801 1111.91)
(619.489 210.801 1111.93)
(619.458 210.801 1111.96)
(619.433 210.801 1112)
(619.414 210.801 1112.04)
(619.402 210.801 1112.08)
(619.398 210.801 1112.12)
(619.402 210.801 1112.17)
(619.413 210.801 1112.21)
(619.431 210.801 1112.25)
(619.456 210.801 1112.28)
(619.487 210.801 1112.31)
(619.522 210.801 1112.34)
(619.561 210.801 1112.36)
(619.603 210.801 1112.37)
(615.666 210.801 1116.35)
(615.623 210.801 1116.35)
(615.708 210.801 1116.33)
(615.748 210.801 1116.32)
(615.784 210.801 1116.29)
(615.815 210.801 1116.26)
(615.84 210.801 1116.23)
(615.859 210.801 1116.19)
(615.87 210.801 1116.14)
(615.874 210.801 1116.1)
(615.871 210.801 1116.06)
(615.86 210.801 1116.02)
(615.841 210.801 1115.98)
(615.817 210.801 1115.94)
(615.786 210.801 1115.91)
(615.75 210.801 1115.88)
(615.711 210.801 1115.86)
(615.669 210.801 1115.85)
(615.626 210.801 1115.85)
(615.582 210.801 1115.85)
(615.54 210.801 1115.86)
(615.5 210.801 1115.88)
(615.465 210.801 1115.91)
(615.434 210.801 1115.94)
(615.408 210.801 1115.97)
(615.39 210.801 1116.01)
(615.378 210.801 1116.06)
(615.374 210.801 1116.1)
(615.378 210.801 1116.14)
(615.389 210.801 1116.18)
(615.407 210.801 1116.22)
(615.432 210.801 1116.26)
(615.462 210.801 1116.29)
(615.498 210.801 1116.31)
(615.537 210.801 1116.33)
(615.579 210.801 1116.34)
(623.666 210.801 1116.4)
(623.622 210.801 1116.4)
(623.708 210.801 1116.38)
(623.748 210.801 1116.36)
(623.784 210.801 1116.34)
(623.815 210.801 1116.31)
(623.84 210.801 1116.27)
(623.858 210.801 1116.23)
(623.87 210.801 1116.19)
(623.874 210.801 1116.15)
(623.87 210.801 1116.11)
(623.859 210.801 1116.06)
(623.841 210.801 1116.02)
(623.817 210.801 1115.99)
(623.786 210.801 1115.96)
(623.75 210.801 1115.93)
(623.711 210.801 1115.91)
(623.669 210.801 1115.9)
(623.625 210.801 1115.9)
(623.582 210.801 1115.9)
(623.54 210.801 1115.91)
(623.5 210.801 1115.93)
(623.464 210.801 1115.96)
(623.433 210.801 1115.99)
(623.408 210.801 1116.02)
(623.39 210.801 1116.06)
(623.378 210.801 1116.1)
(623.374 210.801 1116.15)
(623.378 210.801 1116.19)
(623.389 210.801 1116.23)
(623.407 210.801 1116.27)
(623.432 210.801 1116.31)
(623.462 210.801 1116.34)
(623.498 210.801 1116.36)
(623.537 210.801 1116.38)
(623.579 210.801 1116.39)
(621.666 210.801 1116.38)
(621.622 210.801 1116.39)
(621.708 210.801 1116.37)
(621.748 210.801 1116.35)
(621.784 210.801 1116.33)
(621.815 210.801 1116.3)
(621.84 210.801 1116.26)
(621.858 210.801 1116.22)
(621.87 210.801 1116.18)
(621.874 210.801 1116.14)
(621.87 210.801 1116.09)
(621.859 210.801 1116.05)
(621.841 210.801 1116.01)
(621.817 210.801 1115.98)
(621.786 210.801 1115.94)
(621.75 210.801 1115.92)
(621.711 210.801 1115.9)
(621.669 210.801 1115.89)
(621.626 210.801 1115.89)
(621.582 210.801 1115.89)
(621.54 210.801 1115.9)
(621.5 210.801 1115.92)
(621.464 210.801 1115.94)
(621.433 210.801 1115.97)
(621.408 210.801 1116.01)
(621.39 210.801 1116.05)
(621.378 210.801 1116.09)
(621.374 210.801 1116.13)
(621.378 210.801 1116.18)
(621.389 210.801 1116.22)
(621.407 210.801 1116.26)
(621.432 210.801 1116.3)
(621.462 210.801 1116.33)
(621.498 210.801 1116.35)
(621.537 210.801 1116.37)
(621.579 210.801 1116.38)
(617.666 210.801 1116.36)
(617.623 210.801 1116.36)
(617.708 210.801 1116.35)
(617.748 210.801 1116.33)
(617.784 210.801 1116.3)
(617.815 210.801 1116.27)
(617.84 210.801 1116.24)
(617.859 210.801 1116.2)
(617.87 210.801 1116.16)
(617.874 210.801 1116.11)
(617.871 210.801 1116.07)
(617.859 210.801 1116.03)
(617.841 210.801 1115.99)
(617.817 210.801 1115.95)
(617.786 210.801 1115.92)
(617.75 210.801 1115.9)
(617.711 210.801 1115.88)
(617.669 210.801 1115.87)
(617.626 210.801 1115.86)
(617.582 210.801 1115.86)
(617.54 210.801 1115.88)
(617.5 210.801 1115.89)
(617.465 210.801 1115.92)
(617.434 210.801 1115.95)
(617.408 210.801 1115.98)
(617.39 210.801 1116.03)
(617.378 210.801 1116.07)
(617.374 210.801 1116.11)
(617.378 210.801 1116.15)
(617.389 210.801 1116.2)
(617.407 210.801 1116.23)
(617.432 210.801 1116.27)
(617.462 210.801 1116.3)
(617.498 210.801 1116.33)
(617.537 210.801 1116.35)
(617.579 210.801 1116.36)
(621.678 210.801 1114.38)
(621.635 210.801 1114.39)
(621.72 210.801 1114.37)
(621.76 210.801 1114.35)
(621.796 210.801 1114.33)
(621.827 210.801 1114.3)
(621.852 210.801 1114.26)
(621.871 210.801 1114.22)
(621.882 210.801 1114.18)
(621.886 210.801 1114.14)
(621.883 210.801 1114.09)
(621.872 210.801 1114.05)
(621.853 210.801 1114.01)
(621.829 210.801 1113.98)
(621.798 210.801 1113.94)
(621.763 210.801 1113.92)
(621.723 210.801 1113.9)
(621.681 210.801 1113.89)
(621.638 210.801 1113.89)
(621.594 210.801 1113.89)
(621.552 210.801 1113.9)
(621.513 210.801 1113.92)
(621.477 210.801 1113.94)
(621.446 210.801 1113.97)
(621.42 210.801 1114.01)
(621.402 210.801 1114.05)
(621.39 210.801 1114.09)
(621.386 210.801 1114.13)
(621.39 210.801 1114.18)
(621.401 210.801 1114.22)
(621.419 210.801 1114.26)
(621.444 210.801 1114.3)
(621.474 210.801 1114.33)
(621.51 210.801 1114.35)
(621.549 210.801 1114.37)
(621.591 210.801 1114.38)
(619.678 210.801 1114.37)
(619.635 210.801 1114.37)
(619.72 210.801 1114.36)
(619.76 210.801 1114.34)
(619.796 210.801 1114.32)
(619.827 210.801 1114.29)
(619.852 210.801 1114.25)
(619.871 210.801 1114.21)
(619.882 210.801 1114.17)
(619.886 210.801 1114.12)
(619.883 210.801 1114.08)
(619.872 210.801 1114.04)
(619.854 210.801 1114)
(619.829 210.801 1113.96)
(619.798 210.801 1113.93)
(619.763 210.801 1113.91)
(619.723 210.801 1113.89)
(619.681 210.801 1113.88)
(619.638 210.801 1113.87)
(619.594 210.801 1113.88)
(619.552 210.801 1113.89)
(619.513 210.801 1113.91)
(619.477 210.801 1113.93)
(619.446 210.801 1113.96)
(619.42 210.801 1114)
(619.402 210.801 1114.04)
(619.39 210.801 1114.08)
(619.386 210.801 1114.12)
(619.39 210.801 1114.17)
(619.401 210.801 1114.21)
(619.419 210.801 1114.25)
(619.444 210.801 1114.28)
(619.474 210.801 1114.31)
(619.51 210.801 1114.34)
(619.549 210.801 1114.36)
(619.591 210.801 1114.37)
(617.654 210.801 1118.36)
(617.61 210.801 1118.36)
(617.696 210.801 1118.35)
(617.736 210.801 1118.33)
(617.771 210.801 1118.3)
(617.802 210.801 1118.27)
(617.828 210.801 1118.24)
(617.846 210.801 1118.2)
(617.858 210.801 1118.16)
(617.862 210.801 1118.11)
(617.858 210.801 1118.07)
(617.847 210.801 1118.03)
(617.829 210.801 1117.99)
(617.805 210.801 1117.95)
(617.774 210.801 1117.92)
(617.738 210.801 1117.9)
(617.699 210.801 1117.88)
(617.657 210.801 1117.87)
(617.614 210.801 1117.86)
(617.57 210.801 1117.86)
(617.528 210.801 1117.88)
(617.488 210.801 1117.89)
(617.452 210.801 1117.92)
(617.421 210.801 1117.95)
(617.396 210.801 1117.98)
(617.378 210.801 1118.03)
(617.366 210.801 1118.07)
(617.362 210.801 1118.11)
(617.365 210.801 1118.15)
(617.377 210.801 1118.2)
(617.395 210.801 1118.23)
(617.419 210.801 1118.27)
(617.45 210.801 1118.3)
(617.486 210.801 1118.33)
(617.525 210.801 1118.35)
(617.567 210.801 1118.36)
(619.654 210.801 1118.37)
(619.61 210.801 1118.37)
(619.696 210.801 1118.36)
(619.736 210.801 1118.34)
(619.771 210.801 1118.32)
(619.802 210.801 1118.29)
(619.828 210.801 1118.25)
(619.846 210.801 1118.21)
(619.858 210.801 1118.17)
(619.862 210.801 1118.12)
(619.858 210.801 1118.08)
(619.847 210.801 1118.04)
(619.829 210.801 1118)
(619.804 210.801 1117.96)
(619.774 210.801 1117.93)
(619.738 210.801 1117.91)
(619.699 210.801 1117.89)
(619.657 210.801 1117.88)
(619.614 210.801 1117.87)
(619.57 210.801 1117.88)
(619.528 210.801 1117.89)
(619.488 210.801 1117.91)
(619.452 210.801 1117.93)
(619.421 210.801 1117.96)
(619.396 210.801 1118)
(619.378 210.801 1118.04)
(619.366 210.801 1118.08)
(619.362 210.801 1118.12)
(619.365 210.801 1118.17)
(619.377 210.801 1118.21)
(619.395 210.801 1118.25)
(619.419 210.801 1118.28)
(619.45 210.801 1118.31)
(619.486 210.801 1118.34)
(619.525 210.801 1118.36)
(619.567 210.801 1118.37)
(621.654 210.801 1118.38)
(621.61 210.801 1118.39)
(621.696 210.801 1118.37)
(621.736 210.801 1118.35)
(621.771 210.801 1118.33)
(621.802 210.801 1118.3)
(621.828 210.801 1118.26)
(621.846 210.801 1118.22)
(621.858 210.801 1118.18)
(621.862 210.801 1118.14)
(621.858 210.801 1118.09)
(621.847 210.801 1118.05)
(621.829 210.801 1118.01)
(621.804 210.801 1117.98)
(621.774 210.801 1117.94)
(621.738 210.801 1117.92)
(621.699 210.801 1117.9)
(621.657 210.801 1117.89)
(621.613 210.801 1117.89)
(621.57 210.801 1117.89)
(621.528 210.801 1117.9)
(621.488 210.801 1117.92)
(621.452 210.801 1117.94)
(621.421 210.801 1117.97)
(621.396 210.801 1118.01)
(621.378 210.801 1118.05)
(621.366 210.801 1118.09)
(621.362 210.801 1118.13)
(621.365 210.801 1118.18)
(621.377 210.801 1118.22)
(621.395 210.801 1118.26)
(621.419 210.801 1118.3)
(621.45 210.801 1118.33)
(621.486 210.801 1118.35)
(621.525 210.801 1118.37)
(621.567 210.801 1118.38)
(617.678 210.801 1114.36)
(617.635 210.801 1114.36)
(617.72 210.801 1114.35)
(617.76 210.801 1114.33)
(617.796 210.801 1114.3)
(617.827 210.801 1114.27)
(617.852 210.801 1114.24)
(617.871 210.801 1114.2)
(617.882 210.801 1114.16)
(617.886 210.801 1114.11)
(617.883 210.801 1114.07)
(617.872 210.801 1114.03)
(617.854 210.801 1113.99)
(617.829 210.801 1113.95)
(617.798 210.801 1113.92)
(617.763 210.801 1113.9)
(617.723 210.801 1113.88)
(617.681 210.801 1113.87)
(617.638 210.801 1113.86)
(617.594 210.801 1113.86)
(617.552 210.801 1113.88)
(617.513 210.801 1113.89)
(617.477 210.801 1113.92)
(617.446 210.801 1113.95)
(617.42 210.801 1113.98)
(617.402 210.801 1114.03)
(617.39 210.801 1114.07)
(617.386 210.801 1114.11)
(617.39 210.801 1114.15)
(617.401 210.801 1114.2)
(617.419 210.801 1114.23)
(617.444 210.801 1114.27)
(617.474 210.801 1114.3)
(617.51 210.801 1114.33)
(617.549 210.801 1114.35)
(617.591 210.801 1114.36)
)

// edges

1056
(
(0 1)
(2 3)
(4 0)
(3 5)
(6 4)
(5 7)
(8 6)
(7 9)
(10 8)
(9 11)
(12 10)
(11 13)
(14 12)
(13 15)
(16 14)
(15 17)
(18 16)
(17 19)
(20 18)
(19 21)
(22 20)
(21 23)
(24 22)
(23 25)
(26 24)
(25 27)
(28 26)
(27 29)
(30 28)
(29 31)
(32 30)
(31 33)
(34 32)
(33 35)
(36 34)
(35 37)
(38 36)
(37 39)
(40 38)
(39 41)
(42 40)
(41 43)
(44 42)
(43 45)
(46 44)
(45 47)
(48 46)
(47 49)
(50 48)
(49 51)
(52 50)
(51 53)
(54 52)
(53 55)
(56 54)
(55 57)
(58 56)
(57 59)
(60 58)
(59 61)
(62 60)
(61 63)
(64 62)
(63 65)
(66 64)
(65 67)
(68 66)
(67 69)
(70 68)
(69 71)
(72 70)
(71 73)
(74 72)
(73 75)
(76 74)
(75 77)
(78 76)
(77 79)
(80 78)
(79 81)
(82 80)
(81 83)
(84 82)
(83 85)
(86 84)
(85 87)
(88 86)
(87 89)
(90 88)
(89 91)
(92 90)
(91 93)
(94 92)
(93 95)
(96 94)
(95 97)
(98 96)
(97 99)
(100 98)
(99 101)
(102 100)
(101 103)
(104 102)
(103 105)
(106 104)
(105 107)
(108 106)
(107 109)
(110 108)
(109 111)
(112 110)
(111 113)
(114 112)
(113 115)
(116 114)
(115 117)
(118 116)
(117 119)
(1 118)
(119 2)
(120 121)
(122 123)
(124 125)
(126 127)
(123 128)
(128 129)
(129 130)
(130 131)
(131 132)
(132 133)
(134 135)
(135 136)
(136 137)
(137 138)
(133 139)
(139 140)
(140 141)
(141 134)
(138 142)
(142 143)
(143 144)
(144 124)
(125 145)
(145 146)
(146 147)
(148 149)
(127 150)
(150 151)
(151 152)
(152 122)
(147 153)
(153 154)
(154 155)
(149 156)
(156 157)
(157 126)
(158 159)
(160 161)
(162 163)
(161 164)
(164 165)
(166 160)
(167 166)
(165 168)
(168 169)
(169 170)
(171 172)
(163 173)
(173 174)
(174 175)
(175 167)
(176 177)
(177 178)
(178 179)
(179 180)
(180 181)
(181 158)
(159 182)
(182 183)
(183 184)
(185 171)
(172 186)
(186 187)
(187 176)
(188 189)
(189 190)
(190 162)
(184 191)
(191 192)
(192 193)
(193 188)
(170 185)
(155 148)
(194 195)
(195 196)
(196 197)
(197 198)
(198 199)
(199 200)
(201 202)
(202 203)
(203 204)
(204 205)
(205 206)
(206 207)
(207 208)
(200 209)
(209 210)
(210 211)
(211 212)
(212 213)
(213 214)
(214 215)
(215 216)
(216 217)
(217 218)
(218 219)
(219 220)
(220 221)
(221 222)
(222 223)
(223 201)
(208 224)
(224 225)
(225 226)
(227 228)
(228 229)
(229 194)
(230 231)
(232 233)
(231 234)
(234 235)
(235 236)
(237 238)
(238 239)
(239 240)
(240 241)
(242 243)
(243 244)