/*--------------------------------*- C++ -*----------------------------------*\
  =========                 |
  \\      /  F ield         | OpenFOAM: The Open Source CFD Toolbox
   \\    /   O peration     | Website:  https://openfoam.org
    \\  /    A nd           | Version:  9
     \\/     M anipulation  |
\*---------------------------------------------------------------------------*/
FoamFile
{
    format      ascii;
    class       extendedFeatureEdgeMesh;
    location    "constant/extendedFeatureEdgeMesh";
    object      vessel.extendedFeatureEdgeMesh;
}
// * * * * * * * * * * * * * * * * * * * * * * * * * * * * * * * * * * * * * //

// points

144
(
(636.989 205.812 1017.64)
(619.624 205.812 1016.12)
(636.989 1405.81 1017.64)
(653.826 1405.81 1022.16)
(653.826 205.812 1022.16)
(669.624 1405.81 1029.52)
(669.624 205.812 1029.52)
(683.903 1405.81 1039.52)
(683.903 205.812 1039.52)
(696.229 1405.81 1051.84)
(696.229 205.812 1051.84)
(706.227 1405.81 1066.12)
(706.227 205.812 1066.12)
(713.593 1405.81 1081.92)
(713.593 205.812 1081.92)
(718.105 1405.81 1098.76)
(718.105 205.812 1098.76)
(719.624 1405.81 1116.12)
(719.624 205.812 1116.12)
(718.105 1405.81 1133.49)
(718.105 205.812 1133.49)
(713.593 1405.81 1150.33)
(713.593 205.812 1150.33)
(706.227 1405.81 1166.12)
(706.227 205.812 1166.12)
(696.229 1405.81 1180.4)
(696.229 205.812 1180.4)
(683.903 1405.81 1192.73)
(683.903 205.812 1192.73)
(669.624 1405.81 1202.73)
(669.624 205.812 1202.73)
(653.826 1405.81 1210.09)
(653.826 205.812 1210.09)
(636.989 1405.81 1214.6)
(636.989 205.812 1214.6)
(619.624 1405.81 1216.12)
(619.624 205.812 1216.12)
(602.259 1405.81 1214.6)
(602.259 205.812 1214.6)
(585.422 1405.81 1210.09)
(585.422 205.812 1210.09)
(569.624 1405.81 1202.73)
(569.624 205.812 1202.73)
(555.345 1405.81 1192.73)
(555.345 205.812 1192.73)
(543.02 1405.81 1180.4)
(543.02 205.812 1180.4)
(533.021 1405.81 1166.12)
(533.021 205.812 1166.12)
(525.655 1405.81 1150.33)
(525.655 205.812 1150.33)
(521.143 1405.81 1133.49)
(521.143 205.812 1133.49)
(519.624 1405.81 1116.12)
(519.624 205.812 1116.12)
(521.143 1405.81 1098.76)
(521.143 205.812 1098.76)
(525.655 1405.81 1081.92)
(525.655 205.812 1081.92)
(533.021 1405.81 1066.12)
(533.021 205.812 1066.12)
(543.02 1405.81 1051.84)
(543.02 205.812 1051.84)
(555.345 1405.81 1039.52)
(555.345 205.812 1039.52)
(569.624 1405.81 1029.52)
(569.624 205.812 1029.52)
(585.422 1405.81 1022.16)
(585.422 205.812 1022.16)
(602.259 1405.81 1017.64)
(602.259 205.812 1017.64)
(619.624 1405.81 1016.12)
(652.458 1403.81 1206.33)
(636.294 1403.81 1210.67)
(619.624 1403.81 1212.12)
(602.954 1403.81 1210.67)
(693.164 1403.81 1177.83)
(681.332 1403.81 1189.66)
(667.624 1403.81 1199.26)
(714.166 1403.81 1132.79)
(709.835 1403.81 1148.96)
(702.763 1403.81 1164.12)
(709.835 1403.81 1083.29)
(714.166 1403.81 1099.45)
(715.624 1403.81 1116.12)
(681.332 1403.81 1042.58)
(693.164 1403.81 1054.42)
(702.763 1403.81 1068.12)
(636.294 1403.81 1021.58)
(652.458 1403.81 1025.91)
(667.624 1403.81 1032.98)
(586.79 1403.81 1025.91)
(602.954 1403.81 1021.58)
(619.624 1403.81 1020.12)
(546.084 1403.81 1054.42)
(557.917 1403.81 1042.58)
(571.624 1403.81 1032.98)
(525.083 1403.81 1099.45)
(529.414 1403.81 1083.29)
(536.486 1403.81 1068.12)
(529.414 1403.81 1148.96)
(525.083 1403.81 1132.79)
(523.624 1403.81 1116.12)
(557.917 1403.81 1189.66)
(546.084 1403.81 1177.83)
(536.486 1403.81 1164.12)
(586.79 1403.81 1206.33)
(571.624 1403.81 1199.26)
(652.458 208.812 1025.91)
(636.294 208.812 1021.58)
(619.624 208.812 1020.12)
(602.954 208.812 1021.58)
(693.164 208.812 1054.42)
(681.332 208.812 1042.58)
(667.624 208.812 1032.98)
(714.166 208.812 1099.45)
(709.835 208.812 1083.29)
(702.763 208.812 1068.12)
(709.835 208.812 1148.96)
(714.166 208.812 1132.79)
(715.624 208.812 1116.12)
(681.332 208.812 1189.66)
(693.164 208.812 1177.83)
(702.763 208.812 1164.12)
(636.294 208.812 1210.67)
(652.458 208.812 1206.33)
(667.624 208.812 1199.26)
(586.79 208.812 1206.33)
(602.954 208.812 1210.67)
(619.624 208.812 1212.12)
(546.084 208.812 1177.83)
(557.917 208.812 1189.66)
(571.624 208.812 1199.26)
(525.083 208.812 1132.79)
(529.414 208.812 1148.96)
(536.486 208.812 1164.12)
(529.414 208.812 1083.29)
(525.083 208.812 1099.45)
(523.624 208.812 1116.12)
(557.917 208.812 1042.58)
(546.084 208.812 1054.42)
(536.486 208.812 1068.12)
(586.79 208.812 1025.91)
(571.624 208.812 1032.98)
)

// edges

144
(
(0 1)
(2 3)
(4 0)
(3 5)
(6 4)
(5 7)
(8 6)
(7 9)
(10 8)
(9 11)
(12 10)
(11 13)
(14 12)
(13 15)
(16 14)
(15 17)
(18 16)
(17 19)
(20 18)
(19 21)
(22 20)
(21 23)
(24 22)
(23 25)
(26 24)
(25 27)
(28 26)
(27 29)
(30 28)
(29 31)
(32 30)
(31 33)
(34 32)
(33 35)
(36 34)
(35 37)
(38 36)
(37 39)
(40 38)
(39 41)
(42 40)
(41 43)
(44 42)
(43 45)
(46 44)
(45 47)
(48 46)
(47 49)
(50 48)
(49 51)
(52 50)
(51 53)
(54 52)
(53 55)
(56 54)
(55 57)
(58 56)
(57 59)
(60 58)
(59 61)
(62 60)
(61 63)
(64 62)
(63 65)
(66 64)
(65 67)
(68 66)
(67 69)
(70 68)
(69 71)
(1 70)
(71 2)
(72 73)
(73 74)
(74 75)
(76 77)
(77 78)
(78 72)
(79 80)
(80 81)
(81 76)
(82 83)
(83 84)
(84 79)
(85 86)
(86 87)
(87 82)
(88 89)
(89 90)
(90 85)
(91 92)
(92 93)
(93 88)
(94 95)
(95 96)
(96 91)
(97 98)
(98 99)
(99 94)
(100 101)
(101 102)
(102 97)
(103 104)
(104 105)
(105 100)
(75 106)
(106 107)
(107 103)
(108 109)
(109 110)
(110 111)
(112 113)
(113 114)
(114 108)
(115 116)
(116 117)
(117 112)
(118 119)
(119 120)
(120 115)
(121 122)
(122 123)
(123 118)
(124 125)
(125 126)
(126 121)
(127 128)
(128 129)
(129 124)
(130 131)
(131 132)
(132 127)
(133 134)
(134 135)
(135 130)
(136 137)
(137 138)
(138 133)
(139 140)
(140 141)
(141 136)
(111 142)
(142 143)
(143 139)
)

// concaveStart mixedStart nonFeatureStart
0 0 0
// internalStart flatStart openStart multipleStart
72 144 144 144
// normals

288
(
(0.087142 0 -0.996196)
(0 -1 0)
(0.258846 0 -0.965919)
(0 1 0)
(0.258846 0 -0.965919)
(0 -1 0)
(0.422583 0 -0.906324)
(0 1 0)
(0.422583 0 -0.906324)
(0 -1 0)
(0.573577 0 -0.819152)
(0 1 0)
(0.573577 0 -0.819152)
(0 -1 0)
(0.707112 0 -0.707102)
(0 1 0)
(0.707112 0 -0.707102)
(0 -1 0)
(0.819157 0 -0.573569)
(0 1 0)
(0.819157 0 -0.573569)
(0 -1 0)
(0.906308 0 -0.422617)
(0 1 0)
(0.906308 0 -0.422617)
(0 -1 0)
(0.965926 0 -0.258819)
(0 1 0)
(0.965926 0 -0.258819)
(0 -1 0)
(0.996194 0 -0.0871584)
(-0 1 0)
(0.996194 0 -0.0871584)
(0 -1 0)
(0.996194 -0 0.0871584)
(0 1 0)
(0.996194 0 0.0871584)
(0 -1 0)
(0.965926 -0 0.258819)
(0 1 0)
(0.965926 0 0.258819)
(-0 -1 0)
(0.906308 -0 0.422617)
(0 1 0)
(0.906308 0 0.422617)
(0 -1 0)
(0.819155 -0 0.573572)
(0 1 0)
(0.819155 0 0.573572)
(0 -1 0)
(0.707088 -0 0.707126)
(0 1 0)
(0.707088 0 0.707126)
(-0 -1 0)
(0.573572 -0 0.819155)
(0 1 0)
(0.573572 0 0.819155)
(0 -1 0)
(0.422635 -0 0.9063)
(0 1 0)
(0.422635 0 0.9063)
(0 -1 0)
(0.258843 -0 0.965919)
(0 1 0)
(0.258843 0 0.965919)
(-0 -1 0)
(0.0871454 -0 0.996196)
(0 1 0)
(0.0871454 0 0.996196)
(0 -1 0)
(-0.0871454 0 0.996196)
(0 1 -0)
(-0.0871454 0 0.996196)
(0 -1 0)
(-0.258844 0 0.965919)
(-0 1 0)
(-0.258844 0 0.965919)
(0 -1 -0)
(-0.422633 0 0.906301)
(0 1 0)
(-0.422633 0 0.906301)
(0 -1 0)
(-0.573569 0 0.819158)
(0 1 0)
(-0.573569 0 0.819158)
(0 -1 0)
(-0.707089 0 0.707124)
(-0 1 0)
(-0.707089 0 0.707124)
(0 -1 -0)
(-0.819155 0 0.573572)
(0 1 0)
(-0.819155 0 0.573572)
(0 -1 0)
(-0.906308 0 0.422617)
(0 1 0)
(-0.906308 0 0.422617)
(0 -1 0)
(-0.965926 0 0.258819)
(-0 1 0)
(-0.965926 0 0.258819)
(0 -1 -0)
(-0.996195 0 0.087155)
(0 1 0)
(-0.996195 0 0.087155)
(0 -1 0)
(-0.996195 0 -0.087155)
(0 1 0)
(-0.996195 0 -0.087155)
(-0 -1 0)
(-0.965926 0 -0.258819)
(0 1 -0)
(-0.965926 0 -0.258819)
(0 -1 0)
(-0.906308 0 -0.422617)
(0 1 0)
(-0.906308 0 -0.422617)
(0 -1 0)
(-0.819157 0 -0.573569)
(0 1 0)
(-0.819157 0 -0.573569)
(0 -1 0)
(-0.707114 0 -0.7071)
(0 1 -0)
(-0.707114 0 -0.7071)
(0 -1 0)
(-0.573573 0 -0.819154)
(0 1 0)
(-0.573573 0 -0.819154)
(0 -1 0)
(-0.422582 0 -0.906325)
(0 1 0)
(-0.422582 0 -0.906325)
(0 -1 0)
(-0.258847 0 -0.965918)
(0 1 -0)
(-0.258847 0 -0.965918)
(0 -1 0)
(-0.087142 0 -0.996196)
(0 1 0)
(-0.087142 0 -0.996196)
(0 -1 -0)
(0.087142 0 -0.996196)
(0 1 0)
(-0 -1 0)
(-0.258819 -0 -0.965926)
(0 -1 0)
(-0.0871871 -0 -0.996192)
(0 -1 0)
(0.0871868 0 -0.996192)
(-0 -1 0)
(-0.707116 -0 -0.707098)
(0 -1 0)
(-0.57357 -0 -0.819157)
(0 -1 0)
(-0.422616 -0 -0.906309)
(-0 -1 0)
(-0.965928 -0 -0.25881)
(0 -1 0)
(-0.906307 -0 -0.422621)
(0 -1 0)
(-0.81914 -0 -0.573594)
(0 -1 0)
(-0.965928 0 0.258812)
(0 -1 0)
(-0.996194 0 0.0871591)
(0 -1 0)
(-0.996194 -0 -0.0871597)
(0 -1 0)
(-0.70709 0 0.707123)
(0 -1 0)
(-0.819159 0 0.573567)
(0 -1 0)
(-0.906307 0 0.422621)
(0 -1 0)
(-0.258816 0 0.965927)
(0 -1 0)
(-0.422616 0 0.906309)
(0 -1 0)
(-0.573609 0 0.819129)
(0 -1 0)
(0.258816 0 0.965927)
(0 -1 -0)
(0.0871252 0 0.996197)
(0 -1 0)
(-0.0871255 0 0.996197)
(0 -1 0)
(0.707087 0 0.707127)
(0 -1 0)
(0.57361 0 0.819128)
(0 -1 0)
(0.422618 0 0.906308)
(0 -1 0)
(0.965927 0 0.258816)
(0 -1 0)
(0.906308 0 0.422618)
(0 -1 0)
(0.819159 0 0.573567)
(0 -1 -0)
(0.965927 0 -0.258814)
(0 -1 0)
(0.996195 0 -0.0871561)
(-0 -1 0)
(0.996195 0 0.0871555)
(0 -1 -0)
(0.707112 0 -0.707101)
(0 -1 0)
(0.81914 0 -0.573594)
(0 -1 0)
(0.906308 0 -0.422618)
(0 -1 -0)
(0.258819 0 -0.965926)
(0 -1 0)
(0.422618 0 -0.906308)
(0 -1 0)
(0.573571 0 -0.819156)
(0 1 0)
(-0.258816 0 0.965927)
(0 1 0)
(-0.0871255 0 0.996197)
(0 1 0)
(0.0871252 0 0.996197)
(0 1 0)
(-0.70709 0 0.707123)
(0 1 0)
(-0.573609 0 0.819129)
(0 1 0)
(-0.422616 0 0.906309)
(0 1 0)
(-0.965928 0 0.258812)
(0 1 0)
(-0.906307 0 0.422621)
(0 1 0)
(-0.819159 0 0.573567)
(0 1 0)
(-0.965928 -0 -0.25881)
(0 1 0)
(-0.996194 -0 -0.0871597)
(-0 1 0)
(-0.996194 0 0.0871591)
(0 1 0)
(-0.707116 -0 -0.707098)
(0 1 0)
(-0.81914 -0 -0.573594)
(0 1 0)
(-0.906307 -0 -0.422621)
(0 1 0)
(-0.258819 -0 -0.965926)
(0 1 0)
(-0.422616 -0 -0.906309)
(0 1 0)
(-0.57357 -0 -0.819157)
(-0 1 0)
(0.258819 0 -0.965926)
(0 1 -0)
(0.0871868 0 -0.996192)
(0 1 0)
(-0.0871871 -0 -0.996192)
(-0 1 0)
(0.707112 0 -0.707101)
(0 1 0)
(0.573571 0 -0.819156)
(0 1 0)
(0.422618 0 -0.906308)
(-0 1 0)
(0.965927 0 -0.258814)
(0 1 0)
(0.906308 0 -0.422618)
(0 1 0)
(0.81914 0 -0.573594)
(0 1 -0)
(0.965927 0 0.258816)
(0 1 0)
(0.996195 0 0.0871555)
(0 1 0)
(0.996195 0 -0.0871561)
(0 1 -0)
(0.707087 0 0.707127)
(0 1 0)
(0.819159 0 0.573567)
(0 1 0)
(0.906308 0 0.422618)
(0 1 -0)
(0.258816 0 0.965927)
(0 1 0)
(0.422618 0 0.906308)
(0 1 0)
(0.57361 0 0.819128)
)

// normal volume types

288
(
0
0
0
0
0
0
0
0
0
0
0
0
0
0
0
0
0
0
0
0
0
0
0
0
0
0
0
0
0
0
0
0
0
0
0
0
0
0
0
0
0
0
0
0
0
0
0
0
0
0
0
0
0
0
0
0
0
0
0
0
0
0
0
0
0
0
0
0
0
0
0
0
0
0
0
0
0
0
0
0
0
0
0
0
0
0
0
0
0
0
0
0
0
0
0
0
0
0
0
0
0
0
0
0
0
0
0
0
0
0
0
0
0
0
0
0
0
0
0
0
0
0
0
0
0
0
0
0
0
0
0
0
0
0
0
0
0
0
0
0
0
0
0
0
0
0
0
0
0
0
0
0
0
0
0
0
0
0
0
0
0
0
0
0
0
0
0
0
0
0
0
0
0
0
0
0
0
0
0
0
0
0
0
0
0
0
0
0
0
0
0
0
0
0
0
0
0
0
0
0
0
0
0
0
0
0
0
0
0
0
0
0
0
0
0
0
0
0
0
0
0
0
0
0
0
0
0
0
0
0
0
0
0
0
0
0
0
0
0
0
0
0
0
0
0
0
0
0
0
0
0
0
0
0
0
0
0
0
0
0
0
0
0
0
0
0
0
0
0
0
0
0
0
0
0
0
0
0
0
0
0
0
0
0
0
0
0
0
)

// normalDirections

144
(
2(1 -1)
2(1 -1)
2(1 -1)
2(1 -1)
2(1 -1)
2(1 -1)
2(1 -1)
2(1 -1)
2(1 -1)
2(1 -1)
2(1 -1)
2(1 -1)
2(1 -1)
2(1 -1)
2(1 -1)
2(1 -1)
2(1 -1)
2(1 -1)
2(1 -1)
2(1 -1)
2(1 -1)
2(1 -1)
2(1 -1)
2(1 -1)
2(1 -1)
2(1 -1)
2(1 -1)
2(1 -1)
2(1 -1)
2(1 -1)
2(1 -1)
2(1 -1)
2(1 -1)
2(1 -1)
2(1 -1)
2(1 -1)
2(1 -1)
2(1 -1)
2(1 -1)
2(1 -1)
2(1 -1)
2(1 -1)
2(1 -1)
2(1 -1)
2(1 -1)
2(1 -1)
2(1 -1)
2(1 -1)
2(1 -1)
2(1 -1)
2(1 -1)
2(1 -1)
2(1 -1)
2(1 -1)
2(1 -1)
2(1 -1)
2(1 -1)
2(1 -1)
2(1 -1)
2(1 -1)
2(1 -1)
2(1 -1)
2(1 -1)
2(1 -1)
2(1 -1)
2(1 -1)
2(1 -1)
2(1 -1)
2(1 -1)
2(1 -1)
2(1 -1)
2(1 -1)
2(1 -1)
2(1 -1)
2(1 -1)
2(1 -1)
2(1 -1)
2(1 -1)
2(1 -1)
2(1 -1)
2(1 -1)
2(1 -1)
2(1 -1)
2(1 -1)
2(1 -1)
2(1 -1)
2(1 -1)
2(1 -1)
2(1 -1)
2(1 -1)
2(1 -1)
2(1 -1)
2(1 -1)
2(1 -1)
2(1 -1)
2(1 -1)
2(1 -1)
2(1 -1)
2(1 -1)
2(1 -1)
2(1 -1)
2(1 -1)
2(1 -1)
2(1 -1)
2(1 -1)
2(1 -1)
2(1 -1)
2(1 -1)
2(1 -1)
2(1 -1)
2(1 -1)
2(1 -1)
2(1 -1)
2(1 -1)
2(1 -1)
2(1 -1)
2(1 -1)
2(1 -1)
2(1 -1)
2(1 -1)
2(1 -1)
2(1 -1)
2(1 -1)
2(1 -1)
2(1 -1)
2(1 -1)
2(1 -1)
2(1 -1)
2(1 -1)
2(1 -1)
2(1 -1)
2(1 -1)
2(1 -1)
2(1 -1)
2(1 -1)
2(1 -1)
2(1 -1)
2(1 -1)
2(1 -1)
2(1 -1)
2(1 -1)
2(1 -1)
2(1 -1)
2(1 -1)
)

// edgeNormals

144
(
2(0 1)
2(2 3)
2(4 5)
2(6 7)
2(8 9)
2(10 11)
2(12 13)
2(14 15)
2(16 17)
2(18 19)
2(20 21)
2(22 23)
2(24 25)
2(26 27)
2(28 29)
2(30 31)
2(32 33)
2(34 35)
2(36 37)
2(38 39)
2(40 41)
2(42 43)
2(44 45)
2(46 47)
2(48 49)
2(50 51)
2(52 53)
2(54 55)
2(56 57)
2(58 59)
2(60 61)
2(62 63)
2(64 65)
2(66 67)
2(68 69)
2(70 71)
2(72 73)
2(74 75)
2(76 77)
2(78 79)
2(80 81)
2(82 83)
2(84 85)
2(86 87)
2(88 89)
2(90 91)
2(92 93)
2(94 95)
2(96 97)
2(98 99)
2(100 101)
2(102 103)
2(104 105)
2(106 107)
2(108 109)
2(110 111)
2(112 113)
2(114 115)
2(116 117)
2(118 119)
2(120 121)
2(122 123)
2(124 125)
2(126 127)
2(128 129)
2(130 131)
2(132 133)
2(134 135)
2(136 137)
2(138 139)
2(140 141)
2(142 143)
2(144 145)
2(146 147)
2(148 149)
2(150 151)
2(152 153)
2(154 155)
2(156 157)
2(158 159)
2(160 161)
2(162 163)
2(164 165)
2(166 167)
2(168 169)
2(170 171)
2(172 173)
2(174 175)
2(176 177)
2(178 179)
2(180 181)
2(182 183)
2(184 185)
2(186 187)
2(188 189)
2(190 191)
2(192 193)
2(194 195)
2(196 197)
2(198 199)
2(200 201)
2(202 203)
2(204 205)
2(206 207)
2(208 209)
2(210 211)
2(212 213)
2(214 215)
2(216 217)
2(218 219)
2(220 221)
2(222 223)
2(224 225)
2(226 227)
2(228 229)
2(230 231)
2(232 233)
2(234 235)
2(236 237)
2(238 239)
2(240 241)
2(242 243)
2(244 245)
2(246 247)
2(248 249)
2(250 251)
2(252 253)
2(254 255)
2(256 257)
2(258 259)
2(260 261)
2(262 263)
2(264 265)
2(266 267)
2(268 269)
2(270 271)
2(272 273)
2(274 275)
2(276 277)
2(278 279)
2(280 281)
2(282 283)
2(284 285)
2(286 287)
)

// featurePointNormals
0()
// featurePointEdges
0()
// regionEdges
0()


// ************************************************************************* //
