/*--------------------------------*- C++ -*----------------------------------*\
  =========                 |
  \\      /  F ield         | OpenFOAM: The Open Source CFD Toolbox
   \\    /   O peration     | Website:  https://openfoam.org
    \\  /    A nd           | Version:  7  
     \\/     M anipulation  |
\*---------------------------------------------------------------------------*/
FoamFile
{
    version     2.0;
    format      ascii;
    class       dictionary;
    location    "system";
    object      setFieldsDict;
}
// * * * * * * * * * * * * * * * * * * * * * * * * * * * * * * * * * * * * * //

defaultFieldValues
(
    volScalarFieldValue alpha.air 1
    volScalarFieldValue alpha.water 0
);

regions
(
    boxToCell
    {
        box (-1.01 -2.01 -1.03) (2.7 1.62 2.3);//y1.35 below outlet
        fieldValues
        (
            volScalarFieldValue alpha.air 0
            volScalarFieldValue alpha.water 1
        );
    }
);


// ************************************************************************* //
