/*--------------------------------*- C++ -*----------------------------------*\
  =========                 |
  \\      /  F ield         | OpenFOAM: The Open Source CFD Toolbox
   \\    /   O peration     | Website:  https://openfoam.org
    \\  /    A nd           | Version:  9
     \\/     M anipulation  |
\*---------------------------------------------------------------------------*/
FoamFile
{
    format      ascii;
    class       featureEdgeMesh;
    location    "constant/triSurface";
    object      inlet.eMesh;
}
// * * * * * * * * * * * * * * * * * * * * * * * * * * * * * * * * * * * * * //


// points:

12227
(
(188.249 5.20277 411.052)
(188.249 5.20277 361.052)
(238.249 5.20277 361.052)
(238.249 5.20277 411.052)
(188.249 0.202773 411.052)
(188.249 0.202773 361.052)
(238.249 0.202773 411.052)
(238.249 0.202773 361.052)
(213.163 5.20277 386.545)
(213.249 5.20277 386.552)
(213.31 5.20277 386.549)
(213.336 5.20277 386.545)
(213.421 5.20277 386.522)
(213.499 5.20277 386.486)
(213.571 5.20277 386.436)
(213.633 5.20277 386.374)
(213.682 5.20277 386.302)
(213.719 5.20277 386.224)
(213.742 5.20277 386.139)
(213.749 5.20277 386.052)
(213.742 5.20277 385.966)
(213.719 5.20277 385.882)
(213.682 5.20277 385.802)
(213.633 5.20277 385.731)
(213.571 5.20277 385.669)
(213.499 5.20277 385.62)
(213.421 5.20277 385.583)
(213.336 5.20277 385.56)
(213.249 5.20277 385.552)
(213.163 5.20277 385.56)
(213.079 5.20277 385.583)
(212.999 5.20277 385.62)
(212.928 5.20277 385.669)
(212.867 5.20277 385.731)
(212.816 5.20277 385.802)
(212.78 5.20277 385.882)
(212.757 5.20277 385.966)
(212.749 5.20277 386.052)
(212.757 5.20277 386.139)
(212.78 5.20277 386.224)
(212.816 5.20277 386.302)
(212.867 5.20277 386.374)
(212.928 5.20277 386.436)
(212.999 5.20277 386.486)
(213.079 5.20277 386.522)
(230.421 5.20277 406.445)
(230.335 5.20277 406.438)
(230.506 5.20277 406.468)
(230.585 5.20277 406.505)
(230.656 5.20277 406.555)
(230.718 5.20277 406.616)
(230.768 5.20277 406.688)
(230.804 5.20277 406.767)
(230.827 5.20277 406.851)
(230.835 5.20277 406.938)
(230.827 5.20277 407.025)
(230.804 5.20277 407.109)
(230.768 5.20277 407.188)
(230.718 5.20277 407.259)
(230.656 5.20277 407.321)
(230.585 5.20277 407.371)
(230.506 5.20277 407.408)
(230.421 5.20277 407.43)
(230.335 5.20277 407.438)
(230.248 5.20277 407.43)
(230.164 5.20277 407.408)
(230.085 5.20277 407.371)
(230.013 5.20277 407.321)
(229.952 5.20277 407.259)
(229.902 5.20277 407.188)
(229.865 5.20277 407.109)
(229.842 5.20277 407.025)
(229.835 5.20277 406.938)
(229.842 5.20277 406.851)
(229.865 5.20277 406.767)
(229.902 5.20277 406.688)
(229.952 5.20277 406.616)
(230.013 5.20277 406.555)
(230.085 5.20277 406.505)
(230.164 5.20277 406.468)
(230.248 5.20277 406.445)
(215.867 5.20277 386.374)
(215.928 5.20277 386.436)
(215.989 5.20277 386.479)
(215.999 5.20277 386.486)
(216.079 5.20277 386.522)
(216.163 5.20277 386.545)
(216.249 5.20277 386.552)
(216.336 5.20277 386.545)
(216.421 5.20277 386.522)
(216.499 5.20277 386.486)
(216.571 5.20277 386.436)
(216.633 5.20277 386.374)
(216.682 5.20277 386.302)
(216.719 5.20277 386.224)
(216.742 5.20277 386.139)
(216.749 5.20277 386.052)
(216.742 5.20277 385.966)
(216.719 5.20277 385.882)
(216.682 5.20277 385.802)
(216.633 5.20277 385.731)
(216.571 5.20277 385.669)
(216.499 5.20277 385.62)
(216.421 5.20277 385.583)
(216.336 5.20277 385.56)
(216.249 5.20277 385.552)
(216.163 5.20277 385.56)
(216.079 5.20277 385.583)
(215.999 5.20277 385.62)
(215.928 5.20277 385.669)
(215.867 5.20277 385.731)
(215.816 5.20277 385.802)
(215.78 5.20277 385.882)
(215.757 5.20277 385.966)
(215.749 5.20277 386.052)
(215.757 5.20277 386.139)
(215.78 5.20277 386.224)
(215.816 5.20277 386.302)
(219.336 5.20277 385.56)
(219.249 5.20277 385.552)
(219.421 5.20277 385.583)
(219.499 5.20277 385.62)
(219.571 5.20277 385.669)
(219.633 5.20277 385.731)
(219.682 5.20277 385.802)
(219.719 5.20277 385.882)
(219.742 5.20277 385.966)
(219.749 5.20277 386.052)
(219.742 5.20277 386.139)
(219.719 5.20277 386.224)
(219.682 5.20277 386.302)
(219.633 5.20277 386.374)
(219.571 5.20277 386.436)
(219.499 5.20277 386.486)
(219.421 5.20277 386.522)
(219.336 5.20277 386.545)
(219.249 5.20277 386.552)
(219.163 5.20277 386.545)
(219.079 5.20277 386.522)
(218.999 5.20277 386.486)
(218.928 5.20277 386.436)
(218.867 5.20277 386.374)
(218.816 5.20277 386.302)
(218.78 5.20277 386.224)
(218.757 5.20277 386.139)
(218.749 5.20277 386.052)
(218.757 5.20277 385.966)
(218.78 5.20277 385.882)
(218.816 5.20277 385.802)
(218.867 5.20277 385.731)
(218.928 5.20277 385.669)
(218.999 5.20277 385.62)
(219.079 5.20277 385.583)
(219.163 5.20277 385.56)
(222.336 5.20277 385.56)
(222.249 5.20277 385.552)
(222.421 5.20277 385.583)
(222.499 5.20277 385.62)
(222.571 5.20277 385.669)
(222.633 5.20277 385.731)
(222.682 5.20277 385.802)
(222.719 5.20277 385.882)
(222.742 5.20277 385.966)
(222.749 5.20277 386.052)
(222.742 5.20277 386.139)
(222.719 5.20277 386.224)
(222.682 5.20277 386.302)
(222.633 5.20277 386.374)
(222.571 5.20277 386.436)
(222.499 5.20277 386.486)
(222.421 5.20277 386.522)
(222.336 5.20277 386.545)
(222.249 5.20277 386.552)
(222.163 5.20277 386.545)
(222.079 5.20277 386.522)
(221.999 5.20277 386.486)
(221.928 5.20277 386.436)
(221.867 5.20277 386.374)
(221.816 5.20277 386.302)
(221.78 5.20277 386.224)
(221.757 5.20277 386.139)
(221.749 5.20277 386.052)
(221.757 5.20277 385.966)
(221.78 5.20277 385.882)
(221.816 5.20277 385.802)
(221.867 5.20277 385.731)
(221.928 5.20277 385.669)
(221.999 5.20277 385.62)
(222.079 5.20277 385.583)
(222.163 5.20277 385.56)
(225.336 5.20277 385.56)
(225.249 5.20277 385.552)
(225.421 5.20277 385.583)
(225.499 5.20277 385.62)
(225.571 5.20277 385.669)
(225.633 5.20277 385.731)
(225.682 5.20277 385.802)
(225.719 5.20277 385.882)
(225.742 5.20277 385.966)
(225.749 5.20277 386.052)
(225.742 5.20277 386.139)
(225.719 5.20277 386.224)
(225.682 5.20277 386.302)
(225.633 5.20277 386.374)
(225.571 5.20277 386.436)
(225.499 5.20277 386.486)
(225.421 5.20277 386.522)
(225.336 5.20277 386.545)
(225.249 5.20277 386.552)
(225.163 5.20277 386.545)
(225.079 5.20277 386.522)
(224.999 5.20277 386.486)
(224.928 5.20277 386.436)
(224.867 5.20277 386.374)
(224.816 5.20277 386.302)
(224.78 5.20277 386.224)
(224.757 5.20277 386.139)
(224.749 5.20277 386.052)
(224.757 5.20277 385.966)
(224.78 5.20277 385.882)
(224.816 5.20277 385.802)
(224.867 5.20277 385.731)
(224.928 5.20277 385.669)
(224.999 5.20277 385.62)
(225.079 5.20277 385.583)
(225.163 5.20277 385.56)
(228.336 5.20277 385.56)
(228.249 5.20277 385.552)
(228.421 5.20277 385.583)
(228.499 5.20277 385.62)
(228.571 5.20277 385.669)
(228.633 5.20277 385.731)
(228.682 5.20277 385.802)
(228.719 5.20277 385.882)
(228.742 5.20277 385.966)
(228.749 5.20277 386.052)
(228.742 5.20277 386.139)
(228.719 5.20277 386.224)
(228.682 5.20277 386.302)
(228.633 5.20277 386.374)
(228.571 5.20277 386.436)
(228.499 5.20277 386.486)
(228.421 5.20277 386.522)
(228.336 5.20277 386.545)
(228.249 5.20277 386.552)
(228.163 5.20277 386.545)
(228.079 5.20277 386.522)
(227.999 5.20277 386.486)
(227.928 5.20277 386.436)
(227.867 5.20277 386.374)
(227.816 5.20277 386.302)
(227.78 5.20277 386.224)
(227.757 5.20277 386.139)
(227.749 5.20277 386.052)
(227.757 5.20277 385.966)
(227.78 5.20277 385.882)
(227.816 5.20277 385.802)
(227.867 5.20277 385.731)
(227.928 5.20277 385.669)
(227.999 5.20277 385.62)
(228.079 5.20277 385.583)
(228.163 5.20277 385.56)
(231.336 5.20277 385.56)
(231.249 5.20277 385.552)
(231.421 5.20277 385.583)
(231.499 5.20277 385.62)
(231.571 5.20277 385.669)
(231.633 5.20277 385.731)
(231.682 5.20277 385.802)
(231.719 5.20277 385.882)
(231.742 5.20277 385.966)
(231.749 5.20277 386.052)
(231.742 5.20277 386.139)
(231.719 5.20277 386.224)
(231.682 5.20277 386.302)
(231.633 5.20277 386.374)
(231.571 5.20277 386.436)
(231.499 5.20277 386.486)
(231.421 5.20277 386.522)
(231.336 5.20277 386.545)
(231.249 5.20277 386.552)
(231.163 5.20277 386.545)
(231.079 5.20277 386.522)
(230.999 5.20277 386.486)
(230.928 5.20277 386.436)
(230.867 5.20277 386.374)
(230.816 5.20277 386.302)
(230.78 5.20277 386.224)
(230.757 5.20277 386.139)
(230.749 5.20277 386.052)
(230.757 5.20277 385.966)
(230.78 5.20277 385.882)
(230.816 5.20277 385.802)
(230.867 5.20277 385.731)
(230.928 5.20277 385.669)
(230.999 5.20277 385.62)
(231.079 5.20277 385.583)
(231.163 5.20277 385.56)
(234.336 5.20277 385.56)
(234.249 5.20277 385.552)
(234.421 5.20277 385.583)
(234.499 5.20277 385.62)
(234.571 5.20277 385.669)
(234.633 5.20277 385.731)
(234.682 5.20277 385.802)
(234.719 5.20277 385.882)
(234.742 5.20277 385.966)
(234.749 5.20277 386.052)
(234.742 5.20277 386.139)
(234.719 5.20277 386.224)
(234.682 5.20277 386.302)
(234.633 5.20277 386.374)
(234.571 5.20277 386.436)
(234.499 5.20277 386.486)
(234.421 5.20277 386.522)
(234.336 5.20277 386.545)
(234.249 5.20277 386.552)
(234.163 5.20277 386.545)
(234.079 5.20277 386.522)
(233.999 5.20277 386.486)
(233.928 5.20277 386.436)
(233.867 5.20277 386.374)
(233.816 5.20277 386.302)
(233.78 5.20277 386.224)
(233.757 5.20277 386.139)
(233.749 5.20277 386.052)
(233.757 5.20277 385.966)
(233.78 5.20277 385.882)
(233.816 5.20277 385.802)
(233.867 5.20277 385.731)
(233.928 5.20277 385.669)
(233.999 5.20277 385.62)
(234.079 5.20277 385.583)
(234.163 5.20277 385.56)
(237.336 5.20277 385.56)
(237.249 5.20277 385.552)
(237.421 5.20277 385.583)
(237.499 5.20277 385.62)
(237.571 5.20277 385.669)
(237.633 5.20277 385.731)
(237.682 5.20277 385.802)
(237.719 5.20277 385.882)
(237.742 5.20277 385.966)
(237.749 5.20277 386.052)
(237.742 5.20277 386.139)
(237.719 5.20277 386.224)
(237.682 5.20277 386.302)
(237.633 5.20277 386.374)
(237.571 5.20277 386.436)
(237.499 5.20277 386.486)
(237.421 5.20277 386.522)
(237.336 5.20277 386.545)
(237.249 5.20277 386.552)
(237.163 5.20277 386.545)
(237.079 5.20277 386.522)
(236.999 5.20277 386.486)
(236.928 5.20277 386.436)
(236.867 5.20277 386.374)
(236.816 5.20277 386.302)
(236.78 5.20277 386.224)
(236.757 5.20277 386.139)
(236.749 5.20277 386.052)
(236.757 5.20277 385.966)
(236.78 5.20277 385.882)
(236.816 5.20277 385.802)
(236.867 5.20277 385.731)
(236.928 5.20277 385.669)
(236.999 5.20277 385.62)
(237.079 5.20277 385.583)
(237.163 5.20277 385.56)
(193.622 5.20277 367.115)
(193.535 5.20277 367.107)
(193.706 5.20277 367.137)
(193.785 5.20277 367.174)
(193.856 5.20277 367.224)
(193.918 5.20277 367.286)
(193.968 5.20277 367.357)
(194.005 5.20277 367.436)
(194.027 5.20277 367.52)
(194.035 5.20277 367.607)
(194.027 5.20277 367.694)
(194.005 5.20277 367.778)
(193.968 5.20277 367.857)
(193.918 5.20277 367.928)
(193.856 5.20277 367.99)
(193.785 5.20277 368.04)
(193.706 5.20277 368.077)
(193.622 5.20277 368.099)
(193.535 5.20277 368.107)
(193.448 5.20277 368.099)
(193.364 5.20277 368.077)
(193.285 5.20277 368.04)
(193.214 5.20277 367.99)
(193.152 5.20277 367.928)
(193.102 5.20277 367.857)
(193.065 5.20277 367.778)
(193.042 5.20277 367.694)
(193.035 5.20277 367.607)
(193.042 5.20277 367.52)
(193.065 5.20277 367.436)
(193.102 5.20277 367.357)
(193.152 5.20277 367.286)
(193.214 5.20277 367.224)
(193.285 5.20277 367.174)
(193.364 5.20277 367.137)
(193.448 5.20277 367.115)
(219.07 5.20277 387.329)
(218.983 5.20277 387.321)
(219.154 5.20277 387.351)
(219.233 5.20277 387.388)
(219.304 5.20277 387.438)
(219.366 5.20277 387.5)
(219.416 5.20277 387.571)
(219.453 5.20277 387.65)
(219.475 5.20277 387.734)
(219.483 5.20277 387.821)
(219.475 5.20277 387.908)
(219.453 5.20277 387.992)
(219.416 5.20277 388.071)
(219.366 5.20277 388.142)
(219.304 5.20277 388.204)
(219.233 5.20277 388.254)
(219.154 5.20277 388.291)
(219.07 5.20277 388.314)
(218.983 5.20277 388.321)
(218.896 5.20277 388.314)
(218.812 5.20277 388.291)
(218.733 5.20277 388.254)
(218.662 5.20277 388.204)
(218.6 5.20277 388.142)
(218.55 5.20277 388.071)
(218.513 5.20277 387.992)
(218.491 5.20277 387.908)
(218.483 5.20277 387.821)
(218.491 5.20277 387.734)
(218.513 5.20277 387.65)
(218.55 5.20277 387.571)
(218.6 5.20277 387.5)
(218.662 5.20277 387.438)
(218.733 5.20277 387.388)
(218.812 5.20277 387.351)
(218.896 5.20277 387.329)
(221.936 5.20277 388.213)
(221.85 5.20277 388.205)
(222.021 5.20277 388.236)
(222.1 5.20277 388.272)
(222.171 5.20277 388.322)
(222.233 5.20277 388.384)
(222.283 5.20277 388.455)
(222.32 5.20277 388.534)
(222.342 5.20277 388.618)
(222.35 5.20277 388.705)
(222.342 5.20277 388.792)
(222.32 5.20277 388.876)
(222.283 5.20277 388.955)
(222.233 5.20277 389.027)
(222.171 5.20277 389.088)
(222.1 5.20277 389.138)
(222.021 5.20277 389.175)
(221.936 5.20277 389.198)
(221.85 5.20277 389.205)
(221.763 5.20277 389.198)
(221.679 5.20277 389.175)
(221.6 5.20277 389.138)
(221.528 5.20277 389.088)
(221.467 5.20277 389.027)
(221.417 5.20277 388.955)
(221.38 5.20277 388.876)
(221.357 5.20277 388.792)
(221.35 5.20277 388.705)
(221.357 5.20277 388.618)
(221.38 5.20277 388.534)
(221.417 5.20277 388.455)
(221.467 5.20277 388.384)
(221.528 5.20277 388.322)
(221.6 5.20277 388.272)
(221.679 5.20277 388.236)
(221.763 5.20277 388.213)
(224.803 5.20277 389.097)
(224.716 5.20277 389.09)
(224.887 5.20277 389.12)
(224.966 5.20277 389.157)
(225.038 5.20277 389.207)
(225.099 5.20277 389.268)
(225.149 5.20277 389.34)
(225.186 5.20277 389.419)
(225.209 5.20277 389.503)
(225.216 5.20277 389.59)
(225.209 5.20277 389.676)
(225.186 5.20277 389.761)
(225.149 5.20277 389.84)
(225.099 5.20277 389.911)
(225.038 5.20277 389.973)
(224.966 5.20277 390.023)
(224.887 5.20277 390.059)
(224.803 5.20277 390.082)
(224.716 5.20277 390.09)
(224.63 5.20277 390.082)
(224.545 5.20277 390.059)
(224.466 5.20277 390.023)
(224.395 5.20277 389.973)
(224.333 5.20277 389.911)
(224.283 5.20277 389.84)
(224.247 5.20277 389.761)
(224.224 5.20277 389.676)
(224.216 5.20277 389.59)
(224.224 5.20277 389.503)
(224.247 5.20277 389.419)
(224.283 5.20277 389.34)
(224.333 5.20277 389.268)
(224.395 5.20277 389.207)
(224.466 5.20277 389.157)
(224.545 5.20277 389.12)
(224.63 5.20277 389.097)
(227.67 5.20277 389.982)
(227.583 5.20277 389.974)
(227.754 5.20277 390.004)
(227.833 5.20277 390.041)
(227.904 5.20277 390.091)
(227.966 5.20277 390.152)
(228.016 5.20277 390.224)
(228.053 5.20277 390.303)
(228.076 5.20277 390.387)
(228.083 5.20277 390.474)
(228.076 5.20277 390.561)
(228.053 5.20277 390.645)
(228.016 5.20277 390.724)
(227.966 5.20277 390.795)
(227.904 5.20277 390.857)
(227.833 5.20277 390.907)
(227.754 5.20277 390.944)
(227.67 5.20277 390.966)
(227.583 5.20277 390.974)
(227.496 5.20277 390.966)
(227.412 5.20277 390.944)
(227.333 5.20277 390.907)
(227.262 5.20277 390.857)
(227.2 5.20277 390.795)
(227.15 5.20277 390.724)
(227.113 5.20277 390.645)
(227.091 5.20277 390.561)
(227.083 5.20277 390.474)
(227.091 5.20277 390.387)
(227.113 5.20277 390.303)
(227.15 5.20277 390.224)
(227.2 5.20277 390.152)
(227.262 5.20277 390.091)
(227.333 5.20277 390.041)
(227.412 5.20277 390.004)
(227.496 5.20277 389.982)
(230.537 5.20277 390.866)
(230.45 5.20277 390.858)
(230.621 5.20277 390.888)
(230.7 5.20277 390.925)
(230.771 5.20277 390.975)
(230.833 5.20277 391.037)
(230.883 5.20277 391.108)
(230.92 5.20277 391.187)
(230.942 5.20277 391.271)
(230.95 5.20277 391.358)
(230.942 5.20277 391.445)
(230.92 5.20277 391.529)
(230.883 5.20277 391.608)
(230.833 5.20277 391.68)
(230.771 5.20277 391.741)
(230.7 5.20277 391.791)
(230.621 5.20277 391.828)
(230.537 5.20277 391.85)
(230.45 5.20277 391.858)
(230.363 5.20277 391.85)
(230.279 5.20277 391.828)
(230.2 5.20277 391.791)
(230.128 5.20277 391.741)
(230.067 5.20277 391.68)
(230.017 5.20277 391.608)
(229.98 5.20277 391.529)
(229.957 5.20277 391.445)
(229.95 5.20277 391.358)
(229.957 5.20277 391.271)
(229.98 5.20277 391.187)
(230.017 5.20277 391.108)
(230.067 5.20277 391.037)
(230.128 5.20277 390.975)
(230.2 5.20277 390.925)
(230.279 5.20277 390.888)
(230.363 5.20277 390.866)
(233.403 5.20277 391.75)
(233.316 5.20277 391.742)
(233.488 5.20277 391.772)
(233.566 5.20277 391.809)
(233.638 5.20277 391.859)
(233.7 5.20277 391.921)
(233.75 5.20277 391.992)
(233.786 5.20277 392.071)
(233.809 5.20277 392.156)
(233.816 5.20277 392.242)
(233.809 5.20277 392.329)
(233.786 5.20277 392.413)
(233.75 5.20277 392.492)
(233.7 5.20277 392.564)
(233.638 5.20277 392.625)
(233.566 5.20277 392.675)
(233.488 5.20277 392.712)
(233.403 5.20277 392.735)
(233.316 5.20277 392.742)
(233.23 5.20277 392.735)
(233.145 5.20277 392.712)
(233.066 5.20277 392.675)
(232.995 5.20277 392.625)
(232.934 5.20277 392.564)
(232.883 5.20277 392.492)
(232.847 5.20277 392.413)
(232.824 5.20277 392.329)
(232.816 5.20277 392.242)
(232.824 5.20277 392.156)
(232.847 5.20277 392.071)
(232.883 5.20277 391.992)
(232.934 5.20277 391.921)
(232.995 5.20277 391.859)
(233.066 5.20277 391.809)
(233.145 5.20277 391.772)
(233.23 5.20277 391.75)
(236.27 5.20277 392.634)
(236.183 5.20277 392.627)
(236.354 5.20277 392.657)
(236.433 5.20277 392.694)
(236.505 5.20277 392.744)
(236.566 5.20277 392.805)
(236.616 5.20277 392.877)
(236.653 5.20277 392.956)
(236.676 5.20277 393.04)
(236.683 5.20277 393.127)
(236.676 5.20277 393.214)
(236.653 5.20277 393.298)
(236.616 5.20277 393.377)
(236.566 5.20277 393.448)
(236.505 5.20277 393.51)
(236.433 5.20277 393.56)
(236.354 5.20277 393.596)
(236.27 5.20277 393.619)
(236.183 5.20277 393.627)
(236.096 5.20277 393.619)
(236.012 5.20277 393.596)
(235.933 5.20277 393.56)
(235.862 5.20277 393.51)
(235.8 5.20277 393.448)
(235.75 5.20277 393.377)
(235.713 5.20277 393.298)
(235.691 5.20277 393.214)
(235.683 5.20277 393.127)
(235.691 5.20277 393.04)
(235.713 5.20277 392.956)
(235.75 5.20277 392.877)
(235.8 5.20277 392.805)
(235.862 5.20277 392.744)
(235.933 5.20277 392.694)
(236.012 5.20277 392.657)
(236.096 5.20277 392.634)
(216.05 5.20277 388.125)
(216.111 5.20277 388.064)
(216.161 5.20277 387.992)
(216.198 5.20277 387.914)
(216.221 5.20277 387.829)
(216.228 5.20277 387.742)
(216.221 5.20277 387.656)
(216.198 5.20277 387.572)
(216.161 5.20277 387.492)
(216.111 5.20277 387.421)
(216.05 5.20277 387.359)
(215.99 5.20277 387.317)
(215.978 5.20277 387.31)
(215.899 5.20277 387.273)
(215.815 5.20277 387.25)
(215.728 5.20277 387.242)
(215.641 5.20277 387.25)
(215.557 5.20277 387.273)
(215.478 5.20277 387.31)
(215.407 5.20277 387.359)
(215.345 5.20277 387.421)
(215.295 5.20277 387.492)
(215.258 5.20277 387.572)
(215.236 5.20277 387.656)
(215.228 5.20277 387.742)
(215.236 5.20277 387.829)
(215.258 5.20277 387.914)
(215.295 5.20277 387.992)
(215.345 5.20277 388.064)
(215.407 5.20277 388.125)
(215.478 5.20277 388.176)
(215.557 5.20277 388.212)
(215.641 5.20277 388.235)
(215.728 5.20277 388.242)
(215.815 5.20277 388.235)
(215.899 5.20277 388.212)
(215.978 5.20277 388.176)
(215.99 5.20277 388.168)
(217.877 5.20277 389.808)
(217.886 5.20277 389.815)
(217.957 5.20277 389.866)
(218.036 5.20277 389.902)
(218.12 5.20277 389.925)
(218.207 5.20277 389.932)
(218.294 5.20277 389.925)
(218.378 5.20277 389.902)
(218.457 5.20277 389.866)
(218.528 5.20277 389.815)
(218.537 5.20277 389.808)
(218.59 5.20277 389.754)
(218.64 5.20277 389.682)
(218.677 5.20277 389.603)
(218.699 5.20277 389.519)
(218.707 5.20277 389.432)
(218.699 5.20277 389.346)
(218.677 5.20277 389.261)
(218.64 5.20277 389.182)
(218.59 5.20277 389.111)
(218.528 5.20277 389.049)
(218.457 5.20277 388.999)
(218.378 5.20277 388.963)
(218.294 5.20277 388.94)
(218.207 5.20277 388.932)
(218.12 5.20277 388.94)
(218.036 5.20277 388.963)
(217.957 5.20277 388.999)
(217.886 5.20277 389.049)
(217.824 5.20277 389.111)
(217.774 5.20277 389.182)
(217.737 5.20277 389.261)
(217.714 5.20277 389.346)
(217.707 5.20277 389.432)
(217.714 5.20277 389.519)
(217.737 5.20277 389.603)
(217.774 5.20277 389.682)
(217.824 5.20277 389.754)
(220.773 5.20277 390.63)
(220.686 5.20277 390.622)
(220.857 5.20277 390.653)
(220.936 5.20277 390.689)
(221.007 5.20277 390.739)
(221.069 5.20277 390.801)
(221.119 5.20277 390.872)
(221.156 5.20277 390.951)
(221.178 5.20277 391.036)
(221.186 5.20277 391.122)
(221.178 5.20277 391.209)
(221.156 5.20277 391.293)
(221.119 5.20277 391.372)
(221.069 5.20277 391.444)
(221.007 5.20277 391.505)
(220.936 5.20277 391.555)
(220.857 5.20277 391.592)
(220.773 5.20277 391.615)
(220.686 5.20277 391.622)
(220.599 5.20277 391.615)
(220.515 5.20277 391.592)
(220.436 5.20277 391.555)
(220.364 5.20277 391.505)
(220.303 5.20277 391.444)
(220.253 5.20277 391.372)
(220.216 5.20277 391.293)
(220.193 5.20277 391.209)
(220.186 5.20277 391.122)
(220.193 5.20277 391.036)
(220.216 5.20277 390.951)
(220.253 5.20277 390.872)
(220.303 5.20277 390.801)
(220.364 5.20277 390.739)
(220.436 5.20277 390.689)
(220.515 5.20277 390.653)
(220.599 5.20277 390.63)
(223.251 5.20277 392.32)
(223.164 5.20277 392.312)
(223.335 5.20277 392.342)
(223.414 5.20277 392.379)
(223.486 5.20277 392.429)
(223.547 5.20277 392.491)
(223.597 5.20277 392.562)
(223.634 5.20277 392.641)
(223.657 5.20277 392.725)
(223.664 5.20277 392.812)
(223.657 5.20277 392.899)
(223.634 5.20277 392.983)
(223.597 5.20277 393.062)
(223.547 5.20277 393.134)
(223.486 5.20277 393.195)
(223.414 5.20277 393.245)
(223.335 5.20277 393.282)
(223.251 5.20277 393.305)
(223.164 5.20277 393.312)
(223.078 5.20277 393.305)
(222.993 5.20277 393.282)
(222.914 5.20277 393.245)
(222.843 5.20277 393.195)
(222.781 5.20277 393.134)
(222.731 5.20277 393.062)
(222.695 5.20277 392.983)
(222.672 5.20277 392.899)
(222.664 5.20277 392.812)
(222.672 5.20277 392.725)
(222.695 5.20277 392.641)
(222.731 5.20277 392.562)
(222.781 5.20277 392.491)
(222.843 5.20277 392.429)
(222.914 5.20277 392.379)
(222.993 5.20277 392.342)
(223.078 5.20277 392.32)
(225.73 5.20277 394.01)
(225.643 5.20277 394.002)
(225.814 5.20277 394.033)
(225.893 5.20277 394.069)
(225.964 5.20277 394.119)
(226.026 5.20277 394.181)
(226.076 5.20277 394.252)
(226.113 5.20277 394.331)
(226.135 5.20277 394.415)
(226.143 5.20277 394.502)
(226.135 5.20277 394.589)
(226.113 5.20277 394.673)
(226.076 5.20277 394.752)
(226.026 5.20277 394.824)
(225.964 5.20277 394.885)
(225.893 5.20277 394.935)
(225.814 5.20277 394.972)
(225.73 5.20277 394.995)
(225.643 5.20277 395.002)
(225.556 5.20277 394.995)
(225.472 5.20277 394.972)
(225.393 5.20277 394.935)
(225.322 5.20277 394.885)
(225.26 5.20277 394.824)
(225.21 5.20277 394.752)
(225.173 5.20277 394.673)
(225.151 5.20277 394.589)
(225.143 5.20277 394.502)
(225.151 5.20277 394.415)
(225.173 5.20277 394.331)
(225.21 5.20277 394.252)
(225.26 5.20277 394.181)
(225.322 5.20277 394.119)
(225.393 5.20277 394.069)
(225.472 5.20277 394.033)
(225.556 5.20277 394.01)
(228.209 5.20277 395.7)
(228.122 5.20277 395.692)
(228.293 5.20277 395.722)
(228.372 5.20277 395.759)
(228.443 5.20277 395.809)
(228.505 5.20277 395.871)
(228.555 5.20277 395.942)
(228.592 5.20277 396.021)
(228.614 5.20277 396.105)
(228.622 5.20277 396.192)
(228.614 5.20277 396.279)
(228.592 5.20277 396.363)
(228.555 5.20277 396.442)
(228.505 5.20277 396.514)
(228.443 5.20277 396.575)
(228.372 5.20277 396.625)
(228.293 5.20277 396.662)
(228.209 5.20277 396.685)
(228.122 5.20277 396.692)
(228.035 5.20277 396.685)
(227.951 5.20277 396.662)
(227.872 5.20277 396.625)
(227.8 5.20277 396.575)
(227.739 5.20277 396.514)
(227.689 5.20277 396.442)
(227.652 5.20277 396.363)
(227.629 5.20277 396.279)
(227.622 5.20277 396.192)
(227.629 5.20277 396.105)
(227.652 5.20277 396.021)
(227.689 5.20277 395.942)
(227.739 5.20277 395.871)
(227.8 5.20277 395.809)
(227.872 5.20277 395.759)
(227.951 5.20277 395.722)
(228.035 5.20277 395.7)
(230.687 5.20277 397.39)
(230.6 5.20277 397.382)
(230.771 5.20277 397.412)
(230.85 5.20277 397.449)
(230.922 5.20277 397.499)
(230.984 5.20277 397.561)
(231.033 5.20277 397.632)
(231.07 5.20277 397.711)
(231.093 5.20277 397.795)
(231.1 5.20277 397.882)
(231.093 5.20277 397.969)
(231.07 5.20277 398.053)
(231.033 5.20277 398.132)
(230.984 5.20277 398.204)
(230.922 5.20277 398.265)
(230.85 5.20277 398.315)
(230.771 5.20277 398.352)
(230.687 5.20277 398.375)
(230.6 5.20277 398.382)
(230.514 5.20277 398.375)
(230.43 5.20277 398.352)
(230.35 5.20277 398.315)
(230.279 5.20277 398.265)
(230.217 5.20277 398.204)
(230.167 5.20277 398.132)
(230.131 5.20277 398.053)
(230.108 5.20277 397.969)
(230.1 5.20277 397.882)
(230.108 5.20277 397.795)
(230.131 5.20277 397.711)
(230.167 5.20277 397.632)
(230.217 5.20277 397.561)
(230.279 5.20277 397.499)
(230.35 5.20277 397.449)
(230.43 5.20277 397.412)
(230.514 5.20277 397.39)
(233.166 5.20277 399.08)
(233.079 5.20277 399.072)
(233.25 5.20277 399.102)
(233.329 5.20277 399.139)
(233.401 5.20277 399.189)
(233.462 5.20277 399.251)
(233.512 5.20277 399.322)
(233.549 5.20277 399.401)
(233.572 5.20277 399.485)
(233.579 5.20277 399.572)
(233.572 5.20277 399.659)
(233.549 5.20277 399.743)
(233.512 5.20277 399.822)
(233.462 5.20277 399.894)
(233.401 5.20277 399.955)
(233.329 5.20277 400.005)
(233.25 5.20277 400.042)
(233.166 5.20277 400.065)
(233.079 5.20277 400.072)
(232.992 5.20277 400.065)
(232.908 5.20277 400.042)
(232.829 5.20277 400.005)
(232.758 5.20277 399.955)
(232.696 5.20277 399.894)
(232.646 5.20277 399.822)
(232.609 5.20277 399.743)
(232.587 5.20277 399.659)
(232.579 5.20277 399.572)
(232.587 5.20277 399.485)
(232.609 5.20277 399.401)
(232.646 5.20277 399.322)
(232.696 5.20277 399.251)
(232.758 5.20277 399.189)
(232.829 5.20277 399.139)
(232.908 5.20277 399.102)
(232.992 5.20277 399.08)
(191.501 5.20277 364.993)
(191.414 5.20277 364.986)
(191.585 5.20277 365.016)
(191.664 5.20277 365.053)
(191.735 5.20277 365.103)
(191.797 5.20277 365.164)
(191.847 5.20277 365.236)
(191.883 5.20277 365.315)
(191.906 5.20277 365.399)
(191.914 5.20277 365.486)
(191.906 5.20277 365.573)
(191.883 5.20277 365.657)
(191.847 5.20277 365.736)
(191.797 5.20277 365.807)
(191.735 5.20277 365.869)
(191.664 5.20277 365.919)
(191.585 5.20277 365.956)
(191.501 5.20277 365.978)
(191.414 5.20277 365.986)
(191.327 5.20277 365.978)
(191.243 5.20277 365.956)
(191.164 5.20277 365.919)
(191.092 5.20277 365.869)
(191.031 5.20277 365.807)
(190.981 5.20277 365.736)
(190.944 5.20277 365.657)
(190.921 5.20277 365.573)
(190.914 5.20277 365.486)
(190.921 5.20277 365.399)
(190.944 5.20277 365.315)
(190.981 5.20277 365.236)
(191.031 5.20277 365.164)
(191.092 5.20277 365.103)
(191.164 5.20277 365.053)
(191.243 5.20277 365.016)
(191.327 5.20277 364.993)
(217.077 5.20277 390.251)
(216.99 5.20277 390.243)
(217.161 5.20277 390.274)
(217.24 5.20277 390.31)
(217.312 5.20277 390.361)
(217.374 5.20277 390.422)
(217.423 5.20277 390.493)
(217.46 5.20277 390.573)
(217.483 5.20277 390.657)
(217.49 5.20277 390.743)
(217.483 5.20277 390.83)
(217.46 5.20277 390.914)
(217.423 5.20277 390.993)
(217.374 5.20277 391.065)
(217.312 5.20277 391.126)
(217.24 5.20277 391.177)
(217.161 5.20277 391.213)
(217.077 5.20277 391.236)
(216.99 5.20277 391.243)
(216.904 5.20277 391.236)
(216.819 5.20277 391.213)
(216.74 5.20277 391.177)
(216.669 5.20277 391.126)
(216.607 5.20277 391.065)
(216.557 5.20277 390.993)
(216.521 5.20277 390.914)
(216.498 5.20277 390.83)
(216.49 5.20277 390.743)
(216.498 5.20277 390.657)
(216.521 5.20277 390.573)
(216.557 5.20277 390.493)
(216.607 5.20277 390.422)
(216.669 5.20277 390.361)
(216.74 5.20277 390.31)
(216.819 5.20277 390.274)
(216.904 5.20277 390.251)
(218.948 5.20277 392.597)
(218.861 5.20277 392.589)
(219.032 5.20277 392.619)
(219.111 5.20277 392.656)
(219.182 5.20277 392.706)
(219.244 5.20277 392.768)
(219.294 5.20277 392.839)
(219.331 5.20277 392.918)
(219.353 5.20277 393.002)
(219.361 5.20277 393.089)
(219.353 5.20277 393.176)
(219.331 5.20277 393.26)
(219.294 5.20277 393.339)
(219.244 5.20277 393.41)
(219.182 5.20277 393.472)
(219.111 5.20277 393.522)
(219.032 5.20277 393.559)
(218.948 5.20277 393.581)
(218.861 5.20277 393.589)
(218.774 5.20277 393.581)
(218.69 5.20277 393.559)
(218.611 5.20277 393.522)
(218.54 5.20277 393.472)
(218.478 5.20277 393.41)
(218.428 5.20277 393.339)
(218.391 5.20277 393.26)
(218.368 5.20277 393.176)
(218.361 5.20277 393.089)
(218.368 5.20277 393.002)
(218.391 5.20277 392.918)
(218.428 5.20277 392.839)
(218.478 5.20277 392.768)
(218.54 5.20277 392.706)
(218.611 5.20277 392.656)
(218.69 5.20277 392.619)
(218.774 5.20277 392.597)
(220.818 5.20277 394.942)
(220.731 5.20277 394.935)
(220.902 5.20277 394.965)
(220.981 5.20277 395.001)
(221.053 5.20277 395.052)
(221.114 5.20277 395.113)
(221.164 5.20277 395.185)
(221.201 5.20277 395.263)
(221.224 5.20277 395.348)
(221.231 5.20277 395.435)
(221.224 5.20277 395.521)
(221.201 5.20277 395.605)
(221.164 5.20277 395.685)
(221.114 5.20277 395.756)
(221.053 5.20277 395.818)
(220.981 5.20277 395.867)
(220.902 5.20277 395.904)
(220.818 5.20277 395.927)
(220.731 5.20277 395.935)
(220.645 5.20277 395.927)
(220.56 5.20277 395.904)
(220.481 5.20277 395.867)
(220.41 5.20277 395.818)
(220.348 5.20277 395.756)
(220.298 5.20277 395.685)
(220.262 5.20277 395.605)
(220.239 5.20277 395.521)
(220.231 5.20277 395.435)
(220.239 5.20277 395.348)
(220.262 5.20277 395.263)
(220.298 5.20277 395.185)
(220.348 5.20277 395.113)
(220.41 5.20277 395.052)
(220.481 5.20277 395.001)
(220.56 5.20277 394.965)
(220.645 5.20277 394.942)
(222.689 5.20277 397.288)
(222.602 5.20277 397.28)
(222.773 5.20277 397.31)
(222.852 5.20277 397.347)
(222.923 5.20277 397.397)
(222.985 5.20277 397.459)
(223.035 5.20277 397.53)
(223.072 5.20277 397.609)
(223.094 5.20277 397.693)
(223.102 5.20277 397.78)
(223.094 5.20277 397.867)
(223.072 5.20277 397.951)
(223.035 5.20277 398.03)
(222.985 5.20277 398.101)
(222.923 5.20277 398.163)
(222.852 5.20277 398.213)
(222.773 5.20277 398.25)
(222.689 5.20277 398.272)
(222.602 5.20277 398.28)
(222.515 5.20277 398.272)
(222.431 5.20277 398.25)
(222.352 5.20277 398.213)
(222.281 5.20277 398.163)
(222.219 5.20277 398.101)
(222.169 5.20277 398.03)
(222.132 5.20277 397.951)
(222.109 5.20277 397.867)
(222.102 5.20277 397.78)
(222.109 5.20277 397.693)
(222.132 5.20277 397.609)
(222.169 5.20277 397.53)
(222.219 5.20277 397.459)
(222.281 5.20277 397.397)
(222.352 5.20277 397.347)
(222.431 5.20277 397.31)
(222.515 5.20277 397.288)
(224.559 5.20277 399.633)
(224.472 5.20277 399.625)
(224.643 5.20277 399.656)
(224.722 5.20277 399.693)
(224.794 5.20277 399.742)
(224.855 5.20277 399.804)
(224.905 5.20277 399.875)
(224.942 5.20277 399.954)
(224.965 5.20277 400.039)