/*--------------------------------*- C++ -*----------------------------------*\
  =========                 |
  \\      /  F ield         | OpenFOAM: The Open Source CFD Toolbox
   \\    /   O peration     | Website:  https://openfoam.org
    \\  /    A nd           | Version:  9
     \\/     M anipulation  |
\*---------------------------------------------------------------------------*/
FoamFile
{
    format      ascii;
    class       featureEdgeMesh;
    location    "constant/triSurface";
    object      inlet.eMesh;
}
// * * * * * * * * * * * * * * * * * * * * * * * * * * * * * * * * * * * * * //


// points:

120
(
(494.6044 2.519995 456.09259)
(499.77359 2.519995 455.2739)
(505 2.519995 455)
(510.22641 2.519995 455.2739)
(480 2.519995 461.6987)
(484.66321 2.519995 459.32269)
(489.5491 2.519995 457.4472)
(467.8428 2.519995 471.54349)
(471.54349 2.519995 467.8428)
(475.61069 2.519995 464.5491)
(459.32269 2.519995 484.66321)
(461.6987 2.519995 480)
(464.5491 2.519995 475.61069)
(455.2739 2.519995 499.77359)
(456.09259 2.519995 494.6044)
(457.4472 2.519995 489.5491)
(456.09259 2.519995 515.39563)
(455.2739 2.519995 510.22641)
(455 2.519995 505)
(461.6987 2.519995 530)
(459.32269 2.519995 525.33679)
(457.4472 2.519995 520.45081)
(471.54349 2.519995 542.15723)
(467.8428 2.519995 538.45648)
(464.5491 2.519995 534.38928)
(484.66321 2.519995 550.67731)
(480 2.519995 548.30127)
(475.61069 2.519995 545.45081)
(499.77359 2.519995 554.72607)
(494.6044 2.519995 553.90741)
(489.5491 2.519995 552.5528)
(515.39563 2.519995 553.90741)
(510.22641 2.519995 554.72607)
(505 2.519995 555)
(530 2.519995 548.30127)
(525.33679 2.519995 550.67731)
(520.45081 2.519995 552.5528)
(542.15723 2.519995 538.45648)
(538.45648 2.519995 542.15723)
(534.38928 2.519995 545.45081)
(550.67731 2.519995 525.33679)
(548.30127 2.519995 530)
(545.45081 2.519995 534.38928)
(554.72607 2.519995 510.22641)
(553.90741 2.519995 515.39563)
(552.5528 2.519995 520.45081)
(553.90741 2.519995 494.6044)
(554.72607 2.519995 499.77359)
(555 2.519995 505)
(548.30127 2.519995 480)
(550.67731 2.519995 484.66321)
(552.5528 2.519995 489.5491)
(538.45648 2.519995 467.8428)
(542.15723 2.519995 471.54349)
(545.45081 2.519995 475.61069)
(525.33679 2.519995 459.32269)
(530 2.519995 461.6987)
(534.38928 2.519995 464.5491)
(515.39563 2.519995 456.09259)
(520.45081 2.519995 457.4472)
(510.22641 4.519999 554.72607)
(505 4.519999 555)
(515.39563 4.519999 553.90741)
(520.45081 4.519999 552.5528)
(525.33679 4.519999 550.67731)
(530 4.519999 548.30127)
(534.38928 4.519999 545.45081)
(538.45648 4.519999 542.15723)
(542.15723 4.519999 538.45648)
(545.45081 4.519999 534.38928)
(548.30127 4.519999 530)
(550.67731 4.519999 525.33679)
(552.5528 4.519999 520.45081)
(553.90741 4.519999 515.39563)
(554.72607 4.519999 510.22641)
(555 4.519999 505)
(554.72607 4.519999 499.77359)
(553.90741 4.519999 494.6044)
(552.5528 4.519999 489.5491)
(550.67731 4.519999 484.66321)
(548.30127 4.519999 480)
(545.45081 4.519999 475.61069)
(542.15723 4.519999 471.54349)
(538.45648 4.519999 467.8428)
(534.38928 4.519999 464.5491)
(530 4.519999 461.6987)
(525.33679 4.519999 459.32269)
(520.45081 4.519999 457.4472)
(515.39563 4.519999 456.09259)
(510.22641 4.519999 455.2739)
(505 4.519999 455)
(499.77359 4.519999 455.2739)
(494.6044 4.519999 456.09259)
(489.5491 4.519999 457.4472)
(484.66321 4.519999 459.32269)
(480 4.519999 461.6987)
(475.61069 4.519999 464.5491)
(471.54349 4.519999 467.8428)
(467.8428 4.519999 471.54349)
(464.5491 4.519999 475.61069)
(461.6987 4.519999 480)
(459.32269 4.519999 484.66321)
(457.4472 4.519999 489.5491)
(456.09259 4.519999 494.6044)
(455.2739 4.519999 499.77359)
(455 4.519999 505)
(455.2739 4.519999 510.22641)
(456.09259 4.519999 515.39563)
(457.4472 4.519999 520.45081)
(459.32269 4.519999 525.33679)
(461.6987 4.519999 530)
(464.5491 4.519999 534.38928)
(467.8428 4.519999 538.45648)
(471.54349 4.519999 542.15723)
(475.61069 4.519999 545.45081)
(480 4.519999 548.30127)
(484.66321 4.519999 550.67731)
(489.5491 4.519999 552.5528)
(494.6044 4.519999 553.90741)
(499.77359 4.519999 554.72607)
)


// edges:

120
(
(0 1)
(1 2)
(2 3)
(4 5)
(5 6)
(6 0)
(7 8)
(8 9)
(9 4)
(10 11)
(11 12)
(12 7)
(13 14)
(14 15)
(15 10)
(16 17)
(17 18)
(18 13)
(19 20)
(20 21)
(21 16)
(22 23)
(23 24)
(24 19)
(25 26)
(26 27)
(27 22)
(28 29)
(29 30)
(30 25)
(31 32)
(32 33)
(33 28)
(34 35)
(35 36)
(36 31)
(37 38)
(38 39)
(39 34)
(40 41)
(41 42)
(42 37)
(43 44)
(44 45)
(45 40)
(46 47)
(47 48)
(48 43)
(49 50)
(50 51)
(51 46)
(52 53)
(53 54)
(54 49)
(55 56)
(56 57)
(57 52)
(3 58)
(58 59)
(59 55)
(60 61)
(62 60)
(63 62)
(64 63)
(65 64)
(66 65)
(67 66)
(68 67)
(69 68)
(70 69)
(71 70)
(72 71)
(73 72)
(74 73)
(75 74)
(76 75)
(77 76)
(78 77)
(79 78)
(80 79)
(81 80)
(82 81)
(83 82)
(84 83)
(85 84)
(86 85)
(87 86)
(88 87)
(89 88)
(90 89)
(91 90)
(92 91)
(93 92)
(94 93)
(95 94)
(96 95)
(97 96)
(98 97)
(99 98)
(100 99)
(101 100)
(102 101)
(103 102)
(104 103)
(105 104)
(106 105)
(107 106)
(108 107)
(109 108)
(110 109)
(111 110)
(112 111)
(113 112)
(114 113)
(115 114)
(116 115)
(117 116)
(118 117)
(119 118)
(61 119)
)

// * * * * * * * * * * * * * * * * * * * * * * * * * * * * * * * * * * * * * //


// ************************************************************************* //
