/*--------------------------------*- C++ -*----------------------------------*\
  =========                 |
  \\      /  F ield         | OpenFOAM: The Open Source CFD Toolbox
   \\    /   O peration     | Website:  https://openfoam.org
    \\  /    A nd           | Version:  9
     \\/     M anipulation  |
\*---------------------------------------------------------------------------*/
FoamFile
{
    format      ascii;
    class       featureEdgeMesh;
    location    "constant/triSurface";
    object      outlet.eMesh;
}
// * * * * * * * * * * * * * * * * * * * * * * * * * * * * * * * * * * * * * //


// points:

120
(
(553.90741 1274.916 1255)
(554.72607 1269.746 1255)
(555 1264.52 1255)
(554.72607 1259.2939 1255)
(548.30127 1289.52 1255)
(550.67731 1284.8571 1255)
(552.5528 1279.9709 1255)
(538.45648 1301.677 1255)
(542.15723 1297.9771 1255)
(545.45081 1293.9091 1255)
(525.33679 1310.197 1255)
(530 1307.821 1255)
(534.38928 1304.9709 1255)
(510.22641 1314.246 1255)
(515.39563 1313.427 1255)
(520.45081 1312.073 1255)
(494.6044 1313.427 1255)
(499.77359 1314.246 1255)
(505 1314.52 1255)
(480 1307.821 1255)
(484.66321 1310.197 1255)
(489.5491 1312.073 1255)
(467.8428 1297.9771 1255)
(471.54349 1301.677 1255)
(475.61069 1304.9709 1255)
(459.32269 1284.8571 1255)
(461.6987 1289.52 1255)
(464.5491 1293.9091 1255)
(455.2739 1269.746 1255)
(456.09259 1274.916 1255)
(457.4472 1279.9709 1255)
(456.09259 1254.124 1255)
(455.2739 1259.2939 1255)
(455 1264.52 1255)
(461.6987 1239.52 1255)
(459.32269 1244.183 1255)
(457.4472 1249.069 1255)
(471.54349 1227.363 1255)
(467.8428 1231.063 1255)
(464.5491 1235.131 1255)
(484.66321 1218.843 1255)
(480 1221.219 1255)
(475.61069 1224.069 1255)
(499.77359 1214.7939 1255)
(494.6044 1215.613 1255)
(489.5491 1216.967 1255)
(515.39563 1215.613 1255)
(510.22641 1214.7939 1255)
(505 1214.52 1255)
(530 1221.219 1255)
(525.33679 1218.843 1255)
(520.45081 1216.967 1255)
(542.15723 1231.063 1255)
(538.45648 1227.363 1255)
(534.38928 1224.069 1255)
(550.67731 1244.183 1255)
(548.30127 1239.52 1255)
(545.45081 1235.131 1255)
(553.90741 1254.124 1255)
(552.5528 1249.069 1255)
(455.2739 1269.746 1257)
(456.09259 1274.916 1257)
(457.4472 1279.9709 1257)
(459.32269 1284.8571 1257)
(461.6987 1289.52 1257)
(464.5491 1293.9091 1257)
(467.8428 1297.9771 1257)
(471.54349 1301.677 1257)
(475.61069 1304.9709 1257)
(480 1307.821 1257)
(484.66321 1310.197 1257)
(489.5491 1312.073 1257)
(494.6044 1313.427 1257)
(499.77359 1314.246 1257)
(505 1314.52 1257)
(510.22641 1314.246 1257)
(515.39563 1313.427 1257)
(520.45081 1312.073 1257)
(525.33679 1310.197 1257)
(530 1307.821 1257)
(534.38928 1304.9709 1257)
(538.45648 1301.677 1257)
(542.15723 1297.9771 1257)
(545.45081 1293.9091 1257)
(548.30127 1289.52 1257)
(550.67731 1284.8571 1257)
(552.5528 1279.9709 1257)
(553.90741 1274.916 1257)
(554.72607 1269.746 1257)
(555 1264.52 1257)
(554.72607 1259.2939 1257)
(553.90741 1254.124 1257)
(552.5528 1249.069 1257)
(550.67731 1244.183 1257)
(548.30127 1239.52 1257)
(545.45081 1235.131 1257)
(542.15723 1231.063 1257)
(538.45648 1227.363 1257)
(534.38928 1224.069 1257)
(530 1221.219 1257)
(525.33679 1218.843 1257)
(520.45081 1216.967 1257)
(515.39563 1215.613 1257)
(510.22641 1214.7939 1257)
(505 1214.52 1257)
(499.77359 1214.7939 1257)
(494.6044 1215.613 1257)
(489.5491 1216.967 1257)
(484.66321 1218.843 1257)
(480 1221.219 1257)
(475.61069 1224.069 1257)
(471.54349 1227.363 1257)
(467.8428 1231.063 1257)
(464.5491 1235.131 1257)
(461.6987 1239.52 1257)
(459.32269 1244.183 1257)
(457.4472 1249.069 1257)
(456.09259 1254.124 1257)
(455.2739 1259.2939 1257)
(455 1264.52 1257)
)


// edges:

120
(
(0 1)
(1 2)
(2 3)
(4 5)
(5 6)
(6 0)
(7 8)
(8 9)
(9 4)
(10 11)
(11 12)
(12 7)
(13 14)
(14 15)
(15 10)
(16 17)
(17 18)
(18 13)
(19 20)
(20 21)
(21 16)
(22 23)
(23 24)
(24 19)
(25 26)
(26 27)
(27 22)
(28 29)
(29 30)
(30 25)
(31 32)
(32 33)
(33 28)
(34 35)
(35 36)
(36 31)
(37 38)
(38 39)
(39 34)
(40 41)
(41 42)
(42 37)
(43 44)
(44 45)
(45 40)
(46 47)
(47 48)
(48 43)
(49 50)
(50 51)
(51 46)
(52 53)
(53 54)
(54 49)
(55 56)
(56 57)
(57 52)
(3 58)
(58 59)
(59 55)
(60 61)
(61 62)
(62 63)
(63 64)
(64 65)
(65 66)
(66 67)
(67 68)
(68 69)
(69 70)
(70 71)
(71 72)
(72 73)
(73 74)
(74 75)
(75 76)
(76 77)
(77 78)
(78 79)
(79 80)
(80 81)
(81 82)
(82 83)
(83 84)
(84 85)
(85 86)
(86 87)
(87 88)
(88 89)
(89 90)
(90 91)
(91 92)
(92 93)
(93 94)
(94 95)
(95 96)
(96 97)
(97 98)
(98 99)
(99 100)
(100 101)
(101 102)
(102 103)
(103 104)
(104 105)
(105 106)
(106 107)
(107 108)
(108 109)
(109 110)
(110 111)
(111 112)
(112 113)
(113 114)
(114 115)
(115 116)
(116 117)
(117 118)
(118 119)
(119 60)
)

// * * * * * * * * * * * * * * * * * * * * * * * * * * * * * * * * * * * * * //


// ************************************************************************* //
