/*--------------------------------*- C++ -*----------------------------------*\
  =========                 |
  \\      /  F ield         | OpenFOAM: The Open Source CFD Toolbox
   \\    /   O peration     | Website:  https://openfoam.org
    \\  /    A nd           | Version:  9
     \\/     M anipulation  |
\*---------------------------------------------------------------------------*/
FoamFile
{
    format      ascii;
    class       extendedFeatureEdgeMesh;
    location    "constant/extendedFeatureEdgeMesh";
    object      blade2.extendedFeatureEdgeMesh;
}
// * * * * * * * * * * * * * * * * * * * * * * * * * * * * * * * * * * * * * //

// points

16
(
(58.8406 22 76.0222)
(58.9201 22 76.0828)
(58.8406 20 76.0222)
(58.9201 20 76.0828)
(58.8406 17 76.0222)
(58.9201 17 76.0828)
(52.7752 17 83.9811)
(52.8547 17 84.0417)
(52.7752 25 83.9811)
(52.8547 25 84.0417)
(58.8406 25 76.0222)
(58.9201 25 76.0828)
(57.7447 22 77.4602)
(57.8242 22 77.5208)
(57.7447 20 77.4602)
(57.8242 20 77.5208)
)

// edges

24
(
(12 0)
(0 1)
(1 13)
(14 12)
(13 15)
(3 2)
(2 14)
(15 3)
(5 4)
(4 2)
(3 5)
(7 6)
(6 4)
(5 7)
(9 8)
(8 6)
(7 9)
(11 10)
(10 8)
(9 11)
(0 10)
(11 1)
(13 12)
(15 14)
)

// concaveStart mixedStart nonFeatureStart
12 12 16
// internalStart flatStart openStart multipleStart
22 24 24 24
// normals

28
(
(0 -1 0)
(-0.79536 1.29338e-05 -0.606137)
(0 -1 0)
(0.606128 0 -0.795367)
(0.795362 -0 0.606135)
(0.606177 0 -0.79533)
(-0.795363 0 -0.606133)
(0.606177 0 -0.79533)
(0.795362 0 0.606135)
(0 1 -0)
(0.606128 0 -0.795367)
(-0.79536 -0 -0.606137)
(0 1 0)
(0.795362 -1.73198e-07 0.606135)
(0.606128 0 -0.795367)
(0 -1 0)
(0.795362 0 0.606135)
(0 -1 0)
(-0.606135 0 0.795362)
(-0.795363 -2.3369e-06 -0.606134)
(-0.606135 0 0.795362)
(0 1 0)
(-0.795363 0 -0.606133)
(0.795362 0 0.606135)
(0 1 -0)
(0.606128 0 -0.795367)
(-0.795363 0 -0.606134)
(0.795362 3.12937e-08 0.606135)
)

// normal volume types

28
(
0
0
0
0
0
0
0
0
0
0
0
0
0
0
0
0
0
0
0
0
0
0
0
0
0
0
0
0
)

// normalDirections

24
(
2(1 -1)
2(1 -1)
2(1 -1)
2(1 -1)
2(1 -1)
2(1 -1)
2(1 -1)
2(1 -1)
2(1 -1)
2(1 -1)
2(1 -1)
2(1 -1)
2(1 -1)
2(1 -1)
2(1 -1)
2(1 -1)
2(1 -1)
2(1 -1)
2(1 -1)
2(1 -1)
2(1 -1)
2(1 -1)
2(1 -1)
2(1 -1)
)

// edgeNormals

24
(
2(0 1)
2(2 3)
2(2 4)
2(5 6)
2(7 8)
2(9 10)
2(9 11)
2(12 13)
2(14 15)
2(14 11)
2(10 16)
2(17 18)
2(17 19)
2(15 16)
2(20 21)
2(20 22)
2(18 23)
2(24 25)
2(24 26)
2(21 27)
2(3 26)
2(25 4)
2(0 7)
2(5 12)
)

// featurePointNormals

16
(
3(0 1 3)
3(2 3 4)
3(9 10 11)
3(9 10 13)
3(14 15 11)
3(14 15 16)
3(17 18 19)
3(17 18 16)
3(20 21 22)
3(20 21 23)
3(24 25 26)
3(24 25 27)
3(0 1 5)
3(2 4 7)
3(5 6 9)
3(7 8 12)
)

// featurePointEdges

16
(
3(1 20 0)
3(1 21 2)
3(5 9 6)
3(7 10 5)
3(8 12 9)
3(10 13 8)
3(11 15 12)
3(13 16 11)
3(14 18 15)
3(16 19 14)
3(17 20 18)
3(19 21 17)
3(22 3 0)
3(2 4 22)
3(23 6 3)
3(4 7 23)
)

// regionEdges
0()


// ************************************************************************* //
