/*--------------------------------*- C++ -*----------------------------------*\
  =========                 |
  \\      /  F ield         | OpenFOAM: The Open Source CFD Toolbox
   \\    /   O peration     | Website:  https://openfoam.org
    \\  /    A nd           | Version:  9
     \\/     M anipulation  |
\*---------------------------------------------------------------------------*/
FoamFile
{
    format      ascii;
    class       extendedFeatureEdgeMesh;
    location    "constant/extendedFeatureEdgeMesh";
    object      blade1.extendedFeatureEdgeMesh;
}
// * * * * * * * * * * * * * * * * * * * * * * * * * * * * * * * * * * * * * //

// points

16
(
(57.6924 22 70.409)
(57.6796 22 70.5082)
(57.6924 20 70.409)
(57.6796 20 70.5082)
(57.6924 17 70.409)
(57.6796 17 70.5082)
(47.767 17 69.1357)
(47.7543 17 69.2349)
(47.767 25 69.1357)
(47.7543 25 69.2349)
(57.6924 25 70.409)
(57.6796 25 70.5082)
(55.899 22 70.179)
(55.8863 22 70.2782)
(55.899 20 70.179)
(55.8863 20 70.2782)
)

// edges

24
(
(12 0)
(0 1)
(1 13)
(14 12)
(13 15)
(3 2)
(2 14)
(15 3)
(5 4)
(4 2)
(3 5)
(7 6)
(6 4)
(5 7)
(9 8)
(8 6)
(7 9)
(11 10)
(10 8)
(9 11)
(0 10)
(11 1)
(13 12)
(15 14)
)

// concaveStart mixedStart nonFeatureStart
12 12 16
// internalStart flatStart openStart multipleStart
22 24 24 24
// normals

28
(
(0 -1 0)
(0.127241 -1.61524e-05 -0.991872)
(0 -1 0)
(0.99188 -0 0.12718)
(-0.127245 0 0.991871)
(0.991874 -0 0.127227)
(0.127247 0 -0.991871)
(0.991874 -0 0.127227)
(-0.127246 0 0.991871)
(0 1 0)
(0.99188 -0 0.12718)
(0.127241 0 -0.991872)
(0 1 0)
(-0.127245 -2.60179e-06 0.991871)
(0.99188 -0 0.12718)
(0 -1 0)
(-0.127246 0 0.991871)
(0 -1 0)
(-0.991865 -0 -0.127292)
(0.127246 2.91846e-06 -0.991871)
(-0.991865 -0 -0.127292)
(0 1 0)
(0.127247 0 -0.991871)
(-0.127246 0 0.991871)
(0 1 0)
(0.99188 -0 0.12718)
(0.127246 0 -0.991871)
(-0.127246 4.70098e-07 0.991871)
)

// normal volume types

28
(
0
0
0
0
0
0
0
0
0
0
0
0
0
0
0
0
0
0
0
0
0
0
0
0
0
0
0
0
)

// normalDirections

24
(
2(1 -1)
2(1 -1)
2(1 -1)
2(1 -1)
2(1 -1)
2(1 -1)
2(1 -1)
2(1 -1)
2(1 -1)
2(1 -1)
2(1 -1)
2(1 -1)
2(1 -1)
2(1 -1)
2(1 -1)
2(1 -1)
2(1 -1)
2(1 -1)
2(1 -1)
2(1 -1)
2(1 -1)
2(1 -1)
2(1 -1)
2(1 -1)
)

// edgeNormals

24
(
2(0 1)
2(2 3)
2(2 4)
2(5 6)
2(7 8)
2(9 10)
2(9 11)
2(12 13)
2(14 15)
2(14 11)
2(10 16)
2(17 18)
2(17 19)
2(15 16)
2(20 21)
2(20 22)
2(18 23)
2(24 25)
2(24 26)
2(21 27)
2(3 26)
2(25 4)
2(0 7)
2(5 12)
)

// featurePointNormals

16
(
3(0 1 3)
3(2 3 4)
3(9 10 11)
3(9 10 13)
3(14 15 11)
3(14 15 16)
3(17 18 19)
3(17 18 16)
3(20 21 22)
3(20 21 23)
3(24 25 26)
3(24 25 27)
3(0 1 5)
3(2 4 7)
3(5 6 9)
3(7 8 12)
)

// featurePointEdges

16
(
3(1 20 0)
3(1 21 2)
3(5 9 6)
3(7 10 5)
3(8 12 9)
3(10 13 8)
3(11 15 12)
3(13 16 11)
3(14 18 15)
3(16 19 14)
3(17 20 18)
3(19 21 17)
3(22 3 0)
3(2 4 22)
3(23 6 3)
3(4 7 23)
)

// regionEdges
0()


// ************************************************************************* //
