/*--------------------------------*- C++ -*----------------------------------*\
  =========                 |
  \\      /  F ield         | OpenFOAM: The Open Source CFD Toolbox
   \\    /   O peration     | Website:  https://openfoam.org
    \\  /    A nd           | Version:  9
     \\/     M anipulation  |
\*---------------------------------------------------------------------------*/
FoamFile
{
    format      ascii;
    class       extendedFeatureEdgeMesh;
    location    "constant/extendedFeatureEdgeMesh";
    object      impeller.extendedFeatureEdgeMesh;
}
// * * * * * * * * * * * * * * * * * * * * * * * * * * * * * * * * * * * * * //

// points

264
(
(64.3722 17 77.7904)
(68.2295 17 87.0165)
(68.2295 25 87.0165)
(64.3722 25 77.7904)
(65.1082 22.1 79.5508)
(65.1082 19.9 79.5508)
(55.7804 20 70.2646)
(55.7804 22.1 70.2646)
(57.673 25 70.5074)
(47.7543 25 69.2349)
(47.7543 17 69.2349)
(57.673 17 70.5074)
(60.0326 17 67.4111)
(61.8778 17 66.6396)
(56.1753 17 58.185)
(56.1753 25 58.185)
(58.0205 17 57.4135)
(58.0205 25 57.4135)
(60.0326 25 67.4111)
(61.8778 25 66.6396)
(61.1418 22.1 64.8792)
(61.1418 19.9 64.8792)
(57.4185 17 72.4911)
(47.4998 17 71.2186)
(47.4998 25 71.2186)
(57.4185 25 72.4911)
(60.5108 17 77.295)
(58.9201 17 76.0828)
(54.4495 17 85.2487)
(54.4495 25 85.2487)
(52.8588 17 84.0364)
(52.8588 25 84.0364)
(60.5108 25 77.295)
(58.9201 25 76.0828)
(57.7636 22.1 77.6003)
(57.7636 19.9 77.6003)
(66.2174 17 77.0189)
(70.0747 17 86.245)
(70.0747 25 86.245)
(66.2174 25 77.0189)
(68.8315 17 71.9389)
(68.577 17 73.9226)
(78.7502 17 73.2114)
(78.7502 25 73.2114)
(78.4957 17 75.1951)
(78.4957 25 75.1951)
(68.8315 25 71.9389)
(68.577 25 73.9226)
(70.4696 19.9 74.1654)
(70.4696 22.1 74.1654)
(65.7391 17 67.1349)
(67.3299 17 68.3472)
(71.8005 17 59.1813)
(71.8005 25 59.1813)
(73.3912 17 60.3936)
(73.3912 25 60.3936)
(65.7391 25 67.1349)
(67.3299 25 68.3472)
(68.4876 22.0951 66.8281)
(68.4876 19.8951 66.8281)
(65.8793 22.0951 67.116)
(65.8793 24.9 67.116)
(71.8194 24.9 59.3215)
(71.8194 17.1 59.3215)
(65.8793 17.1 67.116)
(65.8793 19.8951 67.116)
(60.0863 24.9 67.2802)
(56.3061 24.9 58.2387)
(56.3061 17.1 58.2387)
(60.0863 17.1 67.2802)
(60.0863 19.9 67.2802)
(60.0863 22.1 67.2802)
(57.332 22.1 72.3792)
(57.332 24.9 72.3792)
(47.6117 24.9 71.1322)
(47.6117 17.1 71.1322)
(57.332 17.1 72.3792)
(57.332 19.9 72.3792)
(60.3707 19.9 77.314)
(60.3707 22.1 77.314)
(60.3707 24.9 77.314)
(54.4306 24.9 85.1085)
(54.4306 17.1 85.1085)
(60.3707 17.1 77.314)
(66.1637 24.9 77.1498)
(69.9439 24.9 86.1913)
(69.9439 17.1 86.1913)
(66.1637 17.1 77.1498)
(66.1637 19.9 77.1498)
(66.1637 22.1 77.1498)
(68.918 22.1 72.0508)
(68.918 24.9 72.0508)
(78.6383 24.9 73.2978)
(78.6383 17.1 73.2978)
(68.918 17.1 72.0508)
(68.918 19.9 72.0508)
(64.4107 19.9 77.8827)
(64.3722 20 77.7904)
(64.4107 17.1 77.8827)
(68.1909 17.1 86.9242)
(68.1909 24.9 86.9242)
(64.4107 24.9 77.8827)
(64.4107 22.1 77.8827)
(64.3722 22 77.7904)
(65.0696 22 79.4585)
(65.0696 20 79.4585)
(55.8796 20 70.2773)
(55.8796 22 70.2773)
(57.673 22 70.5074)
(57.5738 22.1 70.4946)
(57.5738 24.9 70.4946)
(47.8535 24.9 69.2476)
(47.8535 17.1 69.2476)
(57.5738 17.1 70.4946)
(57.673 20 70.5074)
(57.5738 19.9 70.4946)
(66.8351 22 65.6969)
(66.8351 20 65.6969)
(61.1804 20 64.9715)
(61.1804 22 64.9715)
(57.8242 22 77.5208)
(58.9201 22 76.0828)
(57.4185 22 72.4911)
(60.0326 22 67.4111)
(59.4149 22 78.7331)
(60.5108 22 77.295)
(61.8778 22 66.6396)
(67.3299 22 68.3472)
(65.7391 22 67.1349)
(55.6251 22 72.261)
(66.9148 22 78.687)
(66.2174 22 77.0189)
(68.8315 22 71.9389)
(68.577 22 73.9226)
(70.3704 22 74.1527)
(68.4258 22 66.9092)
(70.6249 22 72.169)
(59.3352 22 65.743)
(55.6251 20 72.261)
(57.4185 20 72.4911)
(70.6249 20 72.169)
(68.8315 20 71.9389)
(60.0326 20 67.4111)
(61.8778 20 66.6396)
(59.3352 20 65.743)
(59.4149 20 78.7331)
(60.5108 20 77.295)
(67.3299 20 68.3472)
(68.4258 20 66.9092)
(68.577 20 73.9226)
(70.3704 20 74.1527)
(58.9201 20 76.0828)
(57.8242 20 77.5208)
(65.7391 20 67.1349)
(66.9148 20 78.687)
(66.2174 20 77.0189)
(61.8393 19.9 66.5473)
(61.8393 17.1 66.5473)
(58.0591 17.1 57.5058)
(58.0591 24.9 57.5058)
(61.8393 24.9 66.5473)
(61.8393 22.1 66.5473)
(58.8595 19.9 76.1623)
(58.8595 17.1 76.1623)
(52.9194 17.1 83.9569)
(52.9194 24.9 83.9569)
(58.8595 24.9 76.1623)
(58.8595 22.1 76.1623)
(68.6762 22.1 73.9354)
(68.6762 24.9 73.9354)
(78.3966 24.9 75.1824)
(78.3966 17.1 75.1824)
(68.6762 17.1 73.9354)
(68.6762 19.9 73.9354)
(67.3905 19.8951 68.2677)
(67.3905 17.1 68.2677)
(73.3306 17.1 60.4731)
(73.3306 24.9 60.4731)
(67.3905 24.9 68.2677)
(67.3905 22.0951 68.2677)
(66.9764 19.8951 65.6764)
(66.9764 22.0951 65.6764)
(59.3889 19.9 65.6121)
(59.3889 22.1 65.6121)
(55.5387 20 72.1491)
(55.5387 22.1 72.1491)
(59.2748 19.9 78.752)
(59.2748 22.1 78.752)
(66.8611 19.9 78.8179)
(66.8611 22.1 78.8179)
(70.7113 19.9 72.2809)
(70.7113 22.1 72.2809)
(65.0353 20 64.9624)
(65.0353 22 64.9624)
(63.1073 20 64.715)
(63.1073 22 64.715)
(63.1427 22 79.715)
(56.6387 22 75.9803)
(55.8889 22 74.1869)
(61.2147 22 79.4676)
(68.4508 22 77.4957)
(69.629 22 75.9496)
(69.6113 22 68.4497)
(70.3611 22 70.2431)
(56.621 22 68.4804)
(57.7992 22 66.9343)
(55.8889 20 74.1869)
(70.3611 20 70.2431)
(57.7992 20 66.9343)
(56.621 20 68.4804)
(61.2147 20 79.4676)
(69.6113 20 68.4497)
(69.629 20 75.9496)
(56.6387 20 75.9803)
(68.4508 20 77.4957)
(63.1427 20 79.715)
(64.6115 142 72.0143)
(64.6128 142 72.4059)
(64.5127 142 72.7844)
(64.318 142 73.1242)
(64.0421 142 73.402)
(63.7036 142 73.5989)
(63.3257 142 73.7015)
(62.9341 142 73.7028)
(62.5556 142 73.6027)
(62.2158 142 73.408)
(61.938 142 73.1321)
(61.7411 142 72.7936)
(61.6385 142 72.4157)
(61.6372 142 72.0241)
(61.7373 142 71.6456)
(61.932 142 71.3058)
(62.2079 142 71.028)
(62.5464 142 70.8311)
(62.9243 142 70.7285)
(63.3159 142 70.7272)
(63.6944 142 70.8273)
(64.0342 142 71.022)
(64.312 142 71.2979)
(64.5089 142 71.6364)
(62.9341 22 73.7028)
(62.5556 22 73.6027)
(64.318 22 73.1242)
(64.0421 22 73.402)
(63.7036 22 73.5989)
(63.3257 22 73.7015)
(64.0342 22 71.022)
(64.312 22 71.2979)
(62.2079 22 71.028)
(62.5464 22 70.8311)
(62.2158 22 73.408)
(61.938 22 73.1321)
(61.7411 22 72.7936)
(61.6385 22 72.4157)
(64.5089 22 71.6364)
(64.6115 22 72.0143)
(64.6128 22 72.4059)
(64.5127 22 72.7844)
(61.6372 22 72.0241)
(61.7373 22 71.6456)
(61.932 22 71.3058)
(62.9243 22 70.7285)
(63.3159 22 70.7272)
(63.6944 22 70.8273)
)

// edges

360
(
(98 96)
(97 0)
(99 98)
(0 1)
(100 99)
(1 2)
(101 100)
(2 3)
(102 101)
(3 103)
(4 102)
(5 4)
(96 5)
(6 7)
(7 109)
(8 108)
(109 110)
(9 8)
(110 111)
(10 9)
(111 112)
(11 10)
(112 113)
(114 11)
(113 115)
(115 6)
(117 192)
(193 116)
(192 194)
(195 193)
(194 118)
(119 195)
(196 104)
(197 120)
(198 197)
(124 199)
(199 196)
(129 198)
(130 200)
(200 201)
(201 134)
(202 135)
(203 202)
(136 203)
(204 107)
(205 204)
(137 205)
(206 138)
(207 140)
(208 144)
(209 208)
(106 209)
(210 145)
(148 211)
(150 212)
(213 206)
(152 213)
(212 214)
(211 207)
(214 154)
(105 215)
(215 210)
(216 217)
(217 218)
(218 219)
(219 220)
(220 221)
(221 222)
(222 223)
(223 224)
(224 225)
(225 226)
(226 227)
(227 228)
(228 229)
(229 230)
(230 231)
(231 232)
(232 233)
(233 234)
(234 235)
(235 236)
(236 237)
(237 238)
(238 239)
(239 216)
(142 12)
(13 143)
(12 13)
(14 15)
(16 14)
(17 16)
(15 17)
(123 18)
(18 15)
(14 12)
(126 19)
(19 18)
(157 156)
(158 157)
(13 16)
(159 158)
(160 159)
(17 19)
(161 160)
(20 161)
(21 20)
(156 21)
(139 22)
(22 11)
(23 24)
(10 23)
(24 9)
(122 25)
(25 24)
(23 22)
(8 25)
(146 26)
(27 151)
(26 27)
(28 29)
(30 28)
(31 30)
(29 31)
(125 32)
(32 29)
(28 26)
(121 33)
(33 32)
(163 162)
(164 163)
(27 30)
(165 164)
(166 165)
(31 33)
(167 166)
(34 167)
(35 34)
(162 35)
(155 36)
(36 0)
(37 38)
(1 37)
(38 2)
(131 39)
(39 38)
(37 36)
(3 39)
(141 40)
(41 149)
(40 41)
(42 43)
(44 42)
(45 44)
(43 45)
(132 46)
(46 43)
(42 40)
(133 47)
(47 46)
(48 49)
(49 168)
(168 169)
(45 47)
(169 170)
(170 171)
(41 44)
(171 172)
(172 173)
(173 48)
(153 50)
(51 147)
(50 51)
(52 53)
(54 52)
(55 54)
(53 55)
(128 56)
(56 53)
(52 50)
(127 57)
(57 56)
(175 174)
(176 175)
(51 54)
(177 176)
(178 177)
(55 57)
(179 178)
(58 179)
(59 58)
(174 59)
(59 180)
(181 58)
(182 21)
(183 20)
(184 6)
(185 7)
(186 35)
(187 34)
(188 5)
(189 4)
(190 48)
(191 49)
(103 104)
(104 105)
(105 97)
(107 106)
(108 107)
(106 114)
(116 117)
(118 119)
(120 121)
(108 122)
(125 124)
(119 126)
(240 241)
(242 243)
(243 244)
(127 128)
(122 129)
(131 130)
(133 132)
(134 133)
(132 136)
(121 125)
(244 245)
(245 240)
(246 247)
(128 116)
(248 249)
(123 137)
(241 250)
(250 251)
(251 252)
(252 253)
(247 254)
(254 255)
(255 256)
(126 123)
(135 127)
(103 131)
(256 257)
(257 242)
(253 258)
(258 259)
(259 260)
(260 248)
(249 261)
(261 262)
(262 263)
(263 246)
(138 139)
(140 141)
(142 143)
(144 142)
(145 146)
(147 148)
(149 150)
(151 152)
(143 118)
(117 153)
(141 149)
(154 155)
(153 147)
(155 97)
(139 114)
(146 151)
(136 140)
(148 135)
(130 154)
(150 134)
(124 145)
(129 138)
(152 120)
(137 144)
(180 181)
(181 60)
(60 179)
(60 61)
(61 178)
(61 62)
(62 177)
(62 63)
(63 176)
(63 64)
(64 175)
(64 65)
(65 174)
(65 180)
(160 66)
(66 67)
(67 159)
(67 68)
(68 158)
(68 69)
(69 157)
(69 70)
(70 156)
(70 182)
(182 183)
(183 71)
(71 161)
(71 66)
(109 72)
(72 73)
(73 110)
(73 74)
(74 111)
(74 75)
(75 112)
(75 76)
(76 113)
(76 77)
(77 115)
(77 184)
(184 185)
(185 72)
(162 78)
(78 186)
(186 187)
(187 79)
(79 167)
(79 80)
(80 166)
(80 81)
(81 165)
(81 82)
(82 164)
(82 83)
(83 163)
(83 78)
(101 84)
(84 85)
(85 100)
(85 86)
(86 99)
(86 87)
(87 98)
(87 88)
(88 96)
(88 188)
(188 189)
(189 89)
(89 102)
(89 84)
(168 90)
(90 91)
(91 169)
(91 92)
(92 170)
(92 93)
(93 171)
(93 94)
(94 172)
(94 95)
(95 173)
(95 190)
(190 191)
(191 90)
)

// concaveStart mixedStart nonFeatureStart
60 96 192
// internalStart flatStart openStart multipleStart
204 360 360 360
// normals

507
(
(-0.922625 0 0.385699)
(0.385734 -0 0.92261)
(-0.922625 0 0.385699)
(-0.385735 0 -0.922609)
(-0.922609 -4.10372e-05 0.385737)
(0 1 0)
(-0.922609 -3.33878e-07 0.385736)
(0 -1 0)
(-0.922609 0 0.385736)
(-0.385737 -0 -0.922609)
(-0.922609 0 0.385736)
(0.385735 -0 0.922609)
(-0.922609 -7.72733e-08 0.385737)
(0 -1 0)
(-0.922609 4.06261e-05 0.385736)
(0 1 0)
(-0.922625 0 0.385699)
(0.385734 -0 0.92261)
(-0.922625 0 0.385699)
(-0.385735 0 -0.922609)
(-0.922608 -4.4338e-05 0.38574)
(0 1 0)
(-0.922582 0 0.385801)
(0.38574 -0 0.922607)
(-0.922608 -6.70107e-05 0.38574)
(0 -1 0)
(0.127264 0 -0.991869)
(-0.991871 0 -0.127246)
(0.127246 -8.82724e-06 -0.991871)
(0 1 0)
(0.127255 0 -0.99187)
(0.991871 0 0.127245)
(0.127255 0 -0.99187)
(-0.991872 0 -0.127243)
(0.127246 8.70993e-06 -0.991871)
(0 1 0)
(0.127247 6.7558e-05 -0.991871)
(-0 -1 0)
(0.12718 0 -0.99188)
(-0.991871 0 -0.127245)
(0.12718 0 -0.99188)
(0.991871 0 0.127248)
(0.127246 -6.69635e-05 -0.991871)
(-0 -1 0)
(0.127247 -8.11549e-06 -0.991871)
(0 1 0)
(0.127255 0 -0.99187)
(0.991871 0 0.127245)
(0.127255 0 -0.99187)
(-0.991872 0 -0.127243)
(0.127264 0.00033514 -0.991869)
(-0.0547758 -0.998474 -0.00702712)
(0.377876 0 -0.925856)
(0 -1 0)
(0.377876 0 -0.925856)
(0 1 0)
(0.127249 0 -0.991871)
(0 -1 0)
(0.127249 0 -0.991871)
(0 1 -0)
(-0.131935 -0 -0.991258)
(0 -1 0)
(-0.131935 0 -0.991258)
(0 1 0)
(0 1 0)
(0.131935 0 0.991258)
(0 1 0)
(-0.792489 0 0.609886)
(-0 1 0)
(-0.922608 0 0.385738)
(-0 1 0)
(-0.377876 0 0.925856)
(0 1 0)
(-0.127249 0 0.991871)
(0 1 0)
(-0.990754 0 0.135673)
(0 1 0)
(0.612874 0 0.790181)
(-0 1 0)
(0.795365 0 0.606131)
(0 1 0)
(0.924421 0 0.381374)
(0 1 -0)
(0.792488 0 -0.609887)
(0 1 -0)
(0.922609 0 -0.385737)
(0 1 -0)
(0.990753 0 -0.135675)
(0 1 -0)
(-0.92442 0 -0.381377)
(-0 1 0)
(-0.795366 0 -0.60613)
(-0 1 0)
(-0.612872 0 -0.790182)
(0 -1 -0)
(-0.990754 0 0.135673)
(0 -1 0)
(0.990753 0 -0.135675)
(0 -1 0)
(-0.612872 -0 -0.790182)
(0 -1 0)
(-0.795366 -0 -0.60613)
(0 -1 0)
(-0.92442 -0 -0.381377)
(0 -1 0)
(-0.377876 0 0.925856)
(0 -1 0)
(0.792488 0 -0.609887)
(0 -1 0)
(0.924421 0 0.381374)
(0 -1 0)
(-0.922608 0 0.385738)
(0 -1 0)
(-0.792489 0 0.609886)
(-0 -1 0)
(0.795365 0 0.606131)
(0 -1 0)
(0.922609 0 -0.385737)
(-0 -1 0)
(0.612874 0 0.790181)
(0 -1 0)
(0.131935 0 0.991258)
(0 -1 0)
(-0.127249 0 0.991871)
(0.999995 0 -0.00331221)
(0 1 0)
(0.966776 -0 0.255625)
(0 1 0)
(0.867667 -0 0.497146)
(0 1 0)
(0.709441 -0 0.704765)
(0 1 0)
(0.502857 -0 0.864369)
(0 1 0)
(0.262021 -0 0.965062)
(0 1 0)
(0.00329272 -0 0.999995)
(0 1 0)
(-0.255607 0 0.966781)
(0 1 0)
(-0.497131 0 0.867675)
(0 1 0)
(-0.704765 0 0.709441)
(-0 1 0)
(-0.864368 0 0.50286)
(0 1 0)
(-0.965064 0 0.262016)
(0 1 0)
(-0.999995 0 0.00331227)
(0 1 0)
(-0.966776 0 -0.255625)
(0 1 0)
(-0.867667 0 -0.497146)
(0 1 0)
(-0.709451 0 -0.704755)
(0 1 -0)
(-0.50288 0 -0.864356)
(0 1 0)
(-0.26198 0 -0.965073)
(0 1 0)
(-0.00333169 0 -0.999994)
(0 1 0)
(0.255643 0 -0.966771)
(0 1 0)
(0.497127 0 -0.867678)
(0 1 0)
(0.704775 0 -0.709431)
(0 1 0)
(0.864359 0 -0.502876)
(0 1 0)
(0.965064 0 -0.262016)
(0 1 0)
(0.385735 0 0.92261)
(-0.922609 0 0.385736)
(0.385735 0 0.92261)
(0.922625 0 -0.385699)
(-0 -1 0)
(-0.385736 0 -0.922609)
(-0.922609 0 0.385737)
(0 -1 0)
(-0.385736 0 -0.922609)
(0.922576 0 -0.385815)
(-0 1 0)
(-0.92261 0 0.385734)
(0.385735 0 0.92261)
(-0.922609 -1.56304e-06 0.385736)
(0 1 0)
(0.385735 0 0.92261)
(0.922625 0 -0.385699)
(0.922625 0 -0.385699)
(-0.385731 0 -0.922611)
(0.922609 -4.10372e-05 -0.385737)
(0 1 0)
(0.922609 -8.45867e-05 -0.385737)
(0.922576 0 -0.385815)
(0.385736 0 0.922609)
(0.922609 8.50266e-05 -0.385737)
(0 -1 0)
(0.922609 4.14771e-05 -0.385737)
(0.922625 0 -0.385699)
(-0.385731 0 -0.922611)
(0.922608 -4.23916e-05 -0.385738)
(0 1 -0)
(0.922595 0 -0.385769)
(-0.385737 0 -0.922609)
(0.922608 -3.37628e-05 -0.385738)
(0 -1 0)
(0.991871 0 0.127245)
(-0.127247 0 0.991871)
(-0.991871 0 -0.127245)
(-0.127246 0 0.991871)
(0 -1 0)
(-0.12725 0 0.991871)
(0.991871 0 0.127245)
(-0.127247 -1.67209e-06 0.991871)
(0 1 0)
(0.606133 0 -0.795364)
(0.795363 0 0.606134)
(0.606133 0 -0.795364)
(-0.795343 0 -0.606159)
(0 -1 0)
(-0.606137 0 0.79536)
(0.795362 0 0.606134)
(0 -1 0)
(-0.606137 0 0.79536)
(-0.79539 0 -0.606098)
(0 1 0)
(0.795366 -0 0.60613)
(0.606133 0 -0.795364)
(0.795363 3.00536e-06 0.606134)
(0 1 0)
(0.606133 0 -0.795364)
(-0.795343 0 -0.606159)
(-0.795343 -0 -0.606159)
(-0.606137 0 0.79536)
(-0.795362 -3.13686e-05 -0.606134)
(0 1 0)
(-0.795362 -4.50777e-05 -0.606134)
(-0.79539 0 -0.606098)
(0.606134 0 -0.795363)
(-0.795362 4.52162e-05 -0.606134)
(0 -1 0)
(-0.795362 3.1507e-05 -0.606134)
(-0.795343 -0 -0.606159)
(-0.606137 0 0.79536)
(-0.79536 -2.72692e-05 -0.606138)
(0 1 0)
(-0.795306 -0 -0.606208)
(-0.606134 0 0.795363)
(-0.79536 8.79501e-05 -0.606138)
(0 -1 0)
(-0.385735 0 -0.922609)
(0.922609 0 -0.385736)
(0.385735 -0 0.922609)
(0.922609 0 -0.385736)
(0 -1 -0)
(0.922609 0 -0.385737)
(-0.385735 0 -0.922609)
(0.922609 8.71955e-07 -0.385736)
(0 1 -0)
(-0.991871 -0 -0.127247)
(0.127247 0 -0.991871)
(-0.991871 -0 -0.127247)
(-0.127339 0 0.991859)
(0 -1 0)
(0.991872 -0 0.127243)
(0.127246 0 -0.991871)
(0 -1 -0)
(0.991872 -0 0.127243)
(-0.12718 0 0.99188)
(0 1 0)
(0.127249 0 -0.991871)
(-0.991871 0 -0.127247)
(0.127247 -1.51029e-06 -0.991871)
(0 1 -0)
(-0.991871 -0 -0.127247)
(-0.127339 0 0.991859)
(-0.12718 0 0.99188)
(0.991871 -0 0.127246)
(-0.127241 -9.91994e-05 0.991872)
(0 1 0)
(-0.127339 0 0.991859)
(0.991871 -0 0.127245)
(-0.127247 9.34319e-05 0.991871)
(-0.127247 6.73599e-05 0.991871)
(0 -1 0)
(-0.12718 0 0.99188)
(-0.991871 -0 -0.127246)
(-0.127247 -6.76232e-05 0.991871)
(-0.127247 -9.36952e-05 0.991871)
(0 1 0)
(-0.127339 0 0.991859)
(0.991871 -0 0.127245)
(-0.127241 -6.18553e-05 0.991872)
(0 -1 0)
(-0.606135 0 0.795362)
(-0.795362 -0 -0.606135)
(-0.606135 0 0.795362)
(0.795418 0 0.606062)
(0 -1 -0)
(0.606135 0 -0.795362)
(-0.795362 0 -0.606135)
(-0 -1 0)
(0.606135 0 -0.795362)
(0.795367 0 0.606128)
(0 1 -0)
(-0.795361 0 -0.606136)
(-0.606135 0 0.795362)
(-0.795362 -1.03783e-06 -0.606135)
(-0 1 0)
(-0.606135 0 0.795362)
(0.795418 0 0.606062)
(0.795418 0 0.606062)
(0.606131 0 -0.795365)
(0.795362 9.23305e-05 0.606135)
(0 1 0)
(0.795362 -7.51872e-06 0.606134)
(0.795367 -0 0.606128)
(-0.606137 0 0.79536)
(0.795362 8.52734e-06 0.606135)
(0 -1 0)
(0.795362 -9.13219e-05 0.606134)
(0.795418 0 0.606062)
(0.606131 0 -0.795365)
(0.795362 9.71163e-05 0.606135)
(0 1 0)
(0.795397 0 0.606088)
(0.606138 0 -0.79536)
(0.795362 -5.70826e-05 0.606135)
(0 -1 -0)
(0.606138 0 -0.79536)
(0 1 -0)
(-0.385737 0 -0.922609)
(-0 1 0)
(-0.991871 0 -0.127246)
(-0 1 0)
(-0.606134 0 0.795363)
(0 1 0)
(0.38574 -0 0.922607)
(0 1 0)
(0.991871 -0 0.127246)
(0 1 0)
(-0.92261 7.31696e-05 0.385734)
(-0.922582 0 0.385801)
(-0.92261 3.818e-05 0.385734)
(0.127264 0 -0.991869)
(0.127245 -1.90722e-05 -0.991871)
(0.127245 9.36419e-06 -0.991871)
(-0.795362 -0 -0.606135)
(0.922595 0 -0.385769)
(-0.795362 -9.13062e-05 -0.606135)
(-0 1 -0)
(0.92261 3.79749e-05 -0.385734)
(0 1 0)
(-0.255607 0 0.966781)
(0 1 -0)
(0.709441 0 0.704765)
(0 1 0)
(0.502857 0 0.864369)
(0 1 0)
(0 1 0)
(-0.12725 7.07632e-05 0.991871)
(0 1 0)
(0 1 0)
(0.262021 0 0.965062)
(0 1 0)
(0.00329272 0 0.999995)
(-0 1 0)
(0.704775 0 -0.709431)
(0 1 0)
(-0.50288 0 -0.864356)
(0 1 0)
(-0.497131 0 0.867675)
(0 1 0)
(-0.704765 0 0.709441)
(0 1 0)
(-0.864368 0 0.50286)
(-0 1 0)
(-0.965064 0 0.262016)
(-0 1 0)
(0.864359 0 -0.502876)
(0 1 0)
(0.965064 0 -0.262016)
(0 1 0)
(0.999995 0 -0.00331221)
(-0 1 0)
(0 1 0)
(0.795363 6.10924e-05 0.606134)
(0 1 0)
(0 1 0)
(0.966776 0 0.255625)
(0 1 0)
(0.867667 0 0.497146)
(0 1 0)
(-0.999995 0 0.00331227)
(0 1 0)
(-0.966776 0 -0.255625)
(0 1 0)
(-0.867667 0 -0.497146)
(0 1 0)
(-0.709451 0 -0.704755)
(0 1 0)
(-0.26198 0 -0.965073)
(0 1 0)
(-0.00333169 0 -0.999994)
(0 1 0)
(0.255643 0 -0.966771)
(0 1 0)
(0.497127 0 -0.867678)
(-0.12725 9.24809e-06 0.991871)
(0.127249 8.35316e-06 -0.991871)
(0 -1 0)
(-0.92261 8.64501e-06 0.385734)
(0.795366 -1.66222e-05 0.60613)
(0.795363 -8.62643e-05 0.606134)
(-0.12725 9.0292e-05 0.991871)
(-0.795362 3.06251e-05 -0.606135)
(0.92261 3.818e-05 -0.385734)
(0 -1 0)
(-0.795361 5.74011e-06 -0.606136)
(0 -1 -0)
(0 -1 0)
(0.922609 -4.82267e-06 -0.385737)
(-0 -1 0)
(0 -1 0)
(0 -1 0)
(0 -1 0)
(0.127246 0 -0.991871)
(0.795397 0 0.606088)
(0.922609 0 -0.385736)
(-0.12718 0 0.99188)
(0.795362 0 0.606134)
(-0.127246 0 0.991871)
(-0.795306 0 -0.606208)
(-0.922609 0 0.385737)
(0.795362 -0 0.606134)
(0.795359 1.47684e-05 0.606138)
(0.606131 0 -0.795365)
(0.795362 -0 0.606135)
(0 -1 0)
(-0.606137 0 0.79536)
(0.795362 0 0.606134)
(0 1 -0)
(0.795362 -2.73728e-06 0.606135)
(0.606131 0 -0.795365)
(0.795359 0 0.606138)
(0 -1 0)
(0 -1 -0)
(0.922609 0 -0.385737)
(0.385736 0 0.922609)
(0.922609 0 -0.385736)
(-0 1 0)
(0.922609 2.68589e-06 -0.385737)
(-0.385731 0 -0.922611)
(0.922607 0 -0.385741)
(0 -1 -0)
(0.922609 0 -0.385736)
(0.922607 -1.45582e-05 -0.385741)
(-0.385731 0 -0.922611)
(-0.991872 0 -0.127243)
(0.127246 0 -0.991871)
(0 -1 -0)
(0.991871 0 0.127248)
(0.127247 0 -0.991871)
(-0 1 0)
(0.127246 2.81387e-06 -0.991871)
(-0.991872 0 -0.127243)
(0.127241 0 -0.991872)
(-0.0547756 -0.998474 -0.0070269)
(0.127247 0 -0.991871)
(0.127241 -1.57966e-05 -0.991872)
(-0 -1 0)
(-0.795359 -0 -0.606138)
(-0.795363 0 -0.606134)
(-0.795359 1.68596e-05 -0.606138)
(-0.606137 0 0.79536)
(-0.795362 0 -0.606134)
(-0 -1 0)
(0.606134 0 -0.795363)
(-0.795363 0 -0.606134)
(0 1 0)
(-0.795362 -3.11048e-06 -0.606134)
(-0.606137 0 0.79536)
(0 -1 0)
(-0.922609 0 0.385737)
(-0.385737 -0 -0.922609)
(-0.922609 0 0.385737)
(0 1 0)
(-0.922609 -2.03907e-06 0.385737)
(0.385734 -0 0.92261)
(-0.92261 0 0.385734)
(0 -1 0)
(-0.922609 0 0.385737)
(-0.92261 1.10523e-05 0.385734)
(0.385734 -0 0.92261)
(0.991871 -0 0.127245)
(-0.127247 0 0.991871)
(0 -1 0)
(-0.991871 -0 -0.127246)
(-0.127247 0 0.991871)
(0 1 0)
(-0.127247 -1.35229e-06 0.991871)
(0.991871 -0 0.127245)
(-0.127249 0 0.991871)
(0 -1 0)
(-0.127247 0 0.991871)
(-0.127249 7.32972e-06 0.991871)
)

// normal volume types

507
(
0
0
0
0
0
0
0
0
0
0
0
0
0
0
0
0
0
0
0
0
0
0
0
0
0
0
0
0
0
0
0
0
0
0
0
0
0
0
0
0
0
0
0
0
0
0
0
0
0
0
0
0
0
0
0
0
0
0
0
0
0
0
0
0
0
0
0
0
0
0
0
0
0
0
0
0
0
0
0
0
0
0
0
0
0
0
0
0
0
0
0
0
0
0
0
0
0
0
0
0
0
0
0
0
0
0
0
0
0
0
0
0
0
0
0
0
0
0
0
0
0
0
0
0
0
0
0
0
0
0
0
0
0
0
0
0
0
0
0
0
0
0
0
0
0
0
0
0
0
0
0
0
0
0
0
0
0
0
0
0
0
0
0
0
0
0
0
0
0
0
0
0
0
0
0
0
0
0
0
0
0
0
0
0
0
0
0
0
0
0
0
0
0
0
0
0
0
0
0
0
0
0
0
0
0
0
0
0
0
0
0
0
0
0
0
0
0
0
0
0
0
0
0
0
0
0
0
0
0
0
0
0
0
0
0
0
0
0
0
0
0
0
0
0
0
0
0
0
0
0
0
0
0
0
0
0
0
0
0
0
0
0
0
0
0
0
0
0
0
0
0
0
0
0
0
0
0
0
0
0
0
0
0
0
0
0
0
0
0
0
0
0
0
0
0
0
0
0
0
0
0
0
0
0
0
0
0
0
0
0
0
0
0
0
0
0
0
0
0
0
0
0
0
0
0
0
0
0
0
0
0
0
0
0
0
0
0
0
0
0
0
0
0
0
0
0
0
0
0
0
0
0
0
0
0
0
0
0
0
0
0
0
0
0
0
0
0
0
0
0
0
0
0
0
0
0
0
0
0
0
0
0
0
0
0
0
0
0
0
0
0
0
0
0
0
0
0
0
0
0
0
0
0
0
0
0
0
0
0
0
0
0
0
0
0
0
0
0
0
0
0
0
0
0
0
0
0
0
0
0
0
0
0
0
0
0
0
0
0
0
0
0
0
0
0
0
0
0
0
0
0
0
0
0
0
0
0
0
0
0
0
0
0
0
0
0
0
0
0
0
0
0
0
0
0
0
0
0
0
0
0
0
0
0
0
0
0
0
0
0
0
0
0
0
0
0
0
0
0
0
0
0
0
0
0
0
0
)

// normalDirections

360
(
2(1 -1)
2(1 -1)
2(1 -1)
2(1 -1)
2(1 -1)
2(1 -1)
2(1 -1)
2(1 -1)
2(1 -1)
2(1 -1)
2(1 -1)
2(1 -1)
2(1 -1)
2(1 -1)
2(1 -1)
2(1 -1)
2(1 -1)
2(1 -1)
2(1 -1)
2(1 -1)
2(1 -1)
2(1 -1)
2(1 -1)
2(1 -1)
2(1 -1)
2(1 -1)
2(1 -1)
2(1 -1)
2(1 -1)
2(1 -1)
2(1 -1)
2(1 -1)
2(1 -1)
2(1 -1)
2(1 -1)
2(1 -1)
2(1 -1)
2(1 -1)
2(1 -1)
2(1 -1)
2(1 -1)
2(1 -1)
2(1 -1)
2(1 -1)
2(1 -1)
2(1 -1)
2(1 -1)
2(1 -1)
2(1 -1)
2(1 -1)
2(1 -1)
2(1 -1)
2(1 -1)
2(1 -1)
2(1 -1)
2(1 -1)
2(1 -1)
2(1 -1)
2(1 -1)
2(1 -1)
2(1 -1)
2(1 -1)
2(1 -1)
2(1 -1)
2(1 -1)
2(1 -1)
2(1 -1)
2(1 -1)
2(1 -1)
2(1 -1)
2(1 -1)
2(1 -1)
2(1 -1)
2(1 -1)
2(1 -1)
2(1 -1)
2(1 -1)
2(1 -1)
2(1 -1)
2(1 -1)
2(1 -1)
2(1 -1)
2(1 -1)
2(1 -1)
2(1 -1)
2(1 -1)
2(1 -1)
2(1 -1)
2(1 -1)
2(1 -1)
2(1 -1)
2(1 -1)
2(1 -1)
2(1 -1)
2(1 -1)
2(1 -1)
2(1 -1)
2(1 -1)
2(1 -1)
2(1 -1)
2(1 -1)
2(1 -1)
2(1 -1)
2(1 -1)
2(1 -1)
2(1 -1)
2(1 -1)
2(1 -1)
2(1 -1)
2(1 -1)
2(1 -1)
2(1 -1)
2(1 -1)
2(1 -1)
2(1 -1)
2(1 -1)
2(1 -1)
2(1 -1)
2(1 -1)
2(1 -1)
2(1 -1)
2(1 -1)
2(1 -1)
2(1 -1)
2(1 -1)
2(1 -1)
2(1 -1)
2(1 -1)
2(1 -1)
2(1 -1)
2(1 -1)
2(1 -1)
2(1 -1)
2(1 -1)
2(1 -1)
2(1 -1)
2(1 -1)
2(1 -1)
2(1 -1)
2(1 -1)
2(1 -1)
2(1 -1)
2(1 -1)
2(1 -1)
2(1 -1)
2(1 -1)
2(1 -1)
2(1 -1)
2(1 -1)
2(1 -1)
2(1 -1)
2(1 -1)
2(1 -1)
2(1 -1)
2(1 -1)
2(1 -1)
2(1 -1)
2(1 -1)
2(1 -1)
2(1 -1)
2(1 -1)
2(1 -1)
2(1 -1)
2(1 -1)
2(1 -1)
2(1 -1)
2(1 -1)
2(1 -1)
2(1 -1)
2(1 -1)
2(1 -1)
2(1 -1)
2(1 -1)
2(1 -1)
2(1 -1)
2(1 -1)
2(1 -1)
2(1 -1)
2(1 -1)
2(1 -1)
2(1 -1)
2(1 -1)
2(1 -1)
2(1 -1)
2(1 -1)
2(1 -1)
2(1 -1)
2(1 -1)
2(1 -1)
2(1 -1)
2(1 -1)
2(1 -1)
2(1 -1)
2(1 -1)
2(1 -1)
2(1 -1)
2(1 -1)
2(1 -1)
2(1 -1)
2(1 -1)
2(1 -1)
2(1 -1)
2(1 -1)
2(1 -1)
2(1 -1)
2(1 -1)
2(1 -1)
2(1 -1)
2(1 -1)
2(1 -1)
2(1 -1)
2(1 -1)
2(1 -1)
2(1 -1)
2(1 -1)
2(1 -1)
2(1 -1)
2(1 -1)
2(1 -1)
2(1 -1)
2(1 -1)
2(1 -1)
2(1 -1)
2(1 -1)
2(1 -1)
2(1 -1)
2(1 -1)
2(1 -1)
2(1 -1)
2(1 -1)
2(1 -1)
2(1 -1)
2(1 -1)
2(1 -1)
2(1 -1)
2(1 -1)
2(1 -1)
2(1 -1)
2(1 -1)
2(1 -1)
2(1 -1)
2(1 -1)
2(1 -1)
2(1 -1)
2(1 -1)
2(1 -1)
2(1 -1)
2(1 -1)
2(1 -1)
2(1 -1)
2(1 -1)
2(1 -1)
2(1 -1)
2(1 -1)
2(1 -1)
2(1 -1)
2(1 -1)
2(1 -1)
2(1 -1)
2(1 -1)
2(1 -1)
2(1 -1)
2(1 -1)
2(1 -1)
2(1 -1)
2(1 -1)
2(1 -1)
2(1 -1)
2(1 -1)
2(1 -1)
2(1 -1)
2(1 -1)
2(1 -1)
2(1 -1)
2(1 -1)
2(1 -1)
2(1 -1)
2(1 -1)
2(1 -1)
2(1 -1)
2(1 -1)
2(1 -1)
2(1 -1)
2(1 -1)
2(1 -1)
2(1 -1)
2(1 -1)
2(1 -1)
2(1 -1)
2(1 -1)
2(1 -1)
2(1 -1)
2(1 -1)
2(1 -1)
2(1 -1)
2(1 -1)
2(1 -1)
2(1 -1)
2(1 -1)
2(1 -1)
2(1 -1)
2(1 -1)
2(1 -1)
2(1 -1)
2(1 -1)
2(1 -1)
2(1 -1)
2(1 -1)
2(1 -1)
2(1 -1)
2(1 -1)
2(1 -1)
2(1 -1)
2(1 -1)
2(1 -1)
2(1 -1)
2(1 -1)
2(1 -1)
2(1 -1)
2(1 -1)
2(1 -1)
2(1 -1)
2(1 -1)
2(1 -1)
2(1 -1)
2(1 -1)
2(1 -1)
2(1 -1)
2(1 -1)
2(1 -1)
2(1 -1)
2(1 -1)
2(1 -1)
2(1 -1)
2(1 -1)
2(1 -1)
2(1 -1)
2(1 -1)
2(1 -1)
2(1 -1)
2(1 -1)
2(1 -1)
2(1 -1)
2(1 -1)
2(1 -1)
2(1 -1)
2(1 -1)
2(1 -1)
2(1 -1)
2(1 -1)
2(1 -1)
2(1 -1)
2(1 -1)
2(1 -1)
2(1 -1)
2(1 -1)
2(1 -1)
2(1 -1)
2(1 -1)
2(1 -1)
)

// edgeNormals

360
(
2(0 1)
2(2 3)
2(4 5)
2(6 7)
2(8 9)
2(10 11)
2(12 13)
2(14 15)
2(16 17)
2(18 19)
2(20 21)
2(22 23)
2(24 25)
2(26 27)
2(28 29)
2(30 31)
2(32 33)
2(34 35)
2(36 37)
2(38 39)
2(40 41)
2(42 43)
2(44 45)
2(46 47)
2(48 49)
2(50 51)
2(52 53)
2(54 55)
2(56 57)
2(58 59)
2(60 61)
2(62 63)
2(64 65)
2(66 67)
2(68 69)
2(70 71)
2(72 73)
2(74 75)
2(76 77)
2(78 79)
2(80 81)
2(82 83)
2(84 85)
2(86 87)
2(88 89)
2(90 91)
2(92 93)
2(94 95)
2(96 97)
2(98 99)
2(100 101)
2(102 103)
2(104 105)
2(106 107)
2(108 109)
2(110 111)
2(112 113)
2(114 115)
2(116 117)
2(118 119)
2(120 121)
2(122 123)
2(124 125)
2(126 127)
2(128 129)
2(130 131)
2(132 133)
2(134 135)
2(136 137)
2(138 139)
2(140 141)
2(142 143)
2(144 145)
2(146 147)
2(148 149)
2(150 151)
2(152 153)
2(154 155)
2(156 157)
2(158 159)
2(160 161)
2(162 163)
2(164 165)
2(166 167)
2(168 169)
2(170 171)
2(172 173)
2(174 175)
2(174 176)
2(177 178)
2(177 179)
2(180 181)
2(180 182)
2(183 184)
2(185 186)
2(173 179)
2(187 188)
2(187 186)
2(189 190)
2(191 192)
2(193 176)
2(194 195)
2(196 197)
2(198 182)
2(199 200)
2(201 202)
2(203 204)
2(205 206)
2(207 208)
2(47 43)
2(209 210)
2(209 211)
2(39 35)
2(212 213)
2(214 215)
2(208 211)
2(31 215)
2(216 217)
2(218 219)
2(218 220)
2(221 222)
2(221 223)
2(224 225)
2(224 226)
2(227 228)
2(229 230)
2(217 223)
2(231 232)
2(231 230)
2(233 234)
2(235 236)
2(237 220)
2(238 239)
2(240 241)
2(242 226)
2(243 244)
2(245 246)
2(247 248)
2(249 250)
2(251 252)
2(251 7)
2(253 254)
2(253 255)
2(11 15)
2(256 257)
2(258 259)
2(252 255)
2(257 259)
2(260 261)
2(262 263)
2(262 264)
2(265 266)
2(265 267)
2(268 269)
2(268 270)
2(271 272)
2(273 274)
2(261 267)
2(275 276)
2(275 274)
2(277 278)
2(279 280)
2(281 282)
2(283 270)
2(284 285)
2(286 287)
2(288 264)
2(289 290)
2(291 292)
2(293 294)
2(295 296)
2(297 298)
2(297 299)
2(300 301)
2(300 302)
2(303 304)
2(303 305)
2(306 307)
2(308 309)
2(296 302)
2(310 311)
2(310 309)
2(312 313)
2(314 315)
2(316 299)
2(317 318)
2(319 320)
2(321 305)
2(322 323)
2(324 325)
2(326 327)
2(328 329)
2(330 329)
2(327 331)
2(206 332)
2(204 333)
2(51 334)
2(27 335)
2(250 336)
2(248 337)
2(25 338)
2(23 339)
2(294 340)
2(278 341)
2(342 64)
2(343 65)
2(344 120)
2(345 89)
2(346 88)
2(347 102)
2(52 348)
2(62 349)
2(66 350)
2(351 213)
2(70 227)
2(63 352)
2(353 354)
2(355 356)
2(357 358)
2(359 307)
2(74 212)
2(76 256)
2(360 272)
2(80 361)
2(86 271)
2(362 228)
2(363 364)
2(365 366)
2(367 368)
2(55 306)
2(369 370)
2(92 183)
2(371 372)
2(373 374)
2(375 376)
2(377 378)
2(379 380)
2(381 382)
2(383 384)
2(385 184)
2(386 387)
2(388 19)
2(389 390)
2(391 392)
2(393 394)
2(395 396)
2(397 398)
2(399 400)
2(401 402)
2(403 404)
2(405 406)
2(407 408)
2(94 409)
2(96 410)
2(411 172)
2(98 412)
2(104 413)
2(106 414)
2(108 415)
2(112 416)
2(61 417)
2(418 419)
2(420 260)
2(421 422)
2(423 295)
2(424 3)
2(425 207)
2(426 216)
2(97 427)
2(83 428)
2(119 429)
2(81 430)
2(105 431)
2(95 432)
2(67 433)
2(99 434)
2(330 435)
2(331 436)
2(325 437)
2(437 438)
2(323 439)
2(439 438)
2(320 440)
2(440 441)
2(318 442)
2(442 443)
2(315 444)
2(444 445)
2(313 446)
2(446 445)
2(447 200)
2(447 448)
2(197 449)
2(449 450)
2(195 451)
2(451 452)
2(192 453)
2(453 454)
2(190 455)
2(455 454)
2(332 456)
2(333 457)
2(202 458)
2(458 448)
2(459 29)
2(459 460)
2(33 461)
2(461 460)
2(37 462)
2(462 463)
2(41 464)
2(464 465)
2(45 466)
2(466 467)
2(49 468)
2(468 467)
2(334 469)
2(335 470)
2(471 234)
2(471 472)
2(336 473)
2(337 474)
2(246 475)
2(475 476)
2(244 477)
2(477 476)
2(241 478)
2(478 479)
2(239 480)
2(480 481)
2(236 482)
2(482 472)
2(483 17)
2(483 484)
2(13 485)
2(485 486)
2(9 487)
2(487 488)
2(5 489)
2(489 490)
2(1 491)
2(491 490)
2(338 492)
2(339 493)
2(21 494)
2(494 484)
2(495 280)
2(495 496)
2(282 497)
2(497 496)
2(285 498)
2(498 499)
2(287 500)
2(500 501)
2(290 502)
2(502 503)
2(292 504)
2(504 503)
2(340 505)
2(341 506)
)

// featurePointNormals

192
(
3(2 3 7)
3(6 7 11)
3(10 11 15)
3(14 15 19)
3(20 21 23)
3(22 23 25)
3(26 27 51)
3(26 27 29)
3(30 31 35)
3(34 35 39)
3(38 39 43)
3(42 43 47)
3(172 173 176)
3(174 175 176)
3(177 178 179)
3(177 178 182)
3(177 179 181)
3(180 181 182)
3(183 184 186)
3(187 188 186)
3(201 202 204)
3(203 204 206)
3(207 208 43)
3(209 210 211)
3(209 210 35)
3(212 213 215)
3(216 217 220)
3(218 219 220)
3(221 222 223)
3(221 222 226)
3(221 223 225)
3(224 225 226)
3(227 228 230)
3(231 232 230)
3(245 246 248)
3(247 248 250)
3(251 252 7)
3(253 254 255)
3(253 254 15)
3(256 257 259)
3(260 261 264)
3(262 263 264)
3(265 266 267)
3(265 266 270)
3(265 267 269)
3(268 269 270)
3(271 272 274)
3(275 276 274)
3(277 278 294)
3(277 278 280)
3(295 296 299)
3(297 298 299)
3(300 301 302)
3(300 301 305)
3(300 302 304)
3(303 304 305)
3(306 307 309)
3(310 311 309)
3(324 325 327)
3(326 327 329)
3(331 436 437)
3(437 438 439)
3(439 438 440)
3(440 441 442)
3(442 443 444)
3(444 445 446)
3(447 200 448)
3(447 448 449)
3(449 450 451)
3(451 452 453)
3(453 454 455)
3(333 457 458)
3(459 29 460)
3(459 460 461)
3(461 460 462)
3(462 463 464)
3(464 465 466)
3(466 467 468)
3(471 234 472)
3(337 474 475)
3(475 476 477)
3(477 476 478)
3(478 479 480)
3(480 481 482)
3(483 17 484)
3(483 484 485)
3(485 486 487)
3(487 488 489)
3(489 490 491)
3(339 493 494)
3(495 280 496)
3(495 496 497)
3(497 496 498)
3(498 499 500)
3(500 501 502)
3(502 503 504)
3(0 1 25)
3(2 3 120)
3(0 1 5)
3(4 5 9)
3(8 9 13)
3(12 13 17)
3(16 17 21)
3(18 19 64)
3(64 65 342)
3(120 121 343)
3(102 103 345)
3(88 89 345)
3(30 31 88)
3(28 29 33)
3(32 33 37)
3(36 37 41)
3(40 41 45)
3(44 45 49)
3(46 47 102)
3(48 49 51)
3(54 55 348)
3(52 53 348)
3(60 61 349)
3(62 63 349)
3(66 67 350)
3(231 232 66)
3(212 213 351)
3(183 184 92)
3(70 71 227)
3(227 228 70)
3(187 188 63)
3(310 311 359)
3(306 307 359)
3(74 75 212)
3(76 77 256)
3(256 257 76)
3(271 272 360)
3(275 276 360)
3(80 81 361)
3(82 83 387)
3(86 87 271)
3(92 93 183)
3(94 95 409)
3(207 208 94)
3(96 97 410)
3(260 261 96)
3(172 173 411)
3(174 175 411)
3(98 99 412)
3(104 105 413)
3(216 217 104)
3(297 298 106)
3(106 107 414)
3(262 263 108)
3(108 109 415)
3(218 219 112)
3(112 113 416)
3(295 296 418)
3(118 119 422)
3(251 252 421)
3(189 190 206)
3(189 190 192)
3(191 192 195)
3(194 195 197)
3(196 197 200)
3(199 200 202)
3(233 234 250)
3(233 234 236)
3(235 236 239)
3(238 239 241)
3(240 241 244)
3(243 244 246)