/*--------------------------------*- C++ -*----------------------------------*\
  =========                 |
  \\      /  F ield         | OpenFOAM: The Open Source CFD Toolbox
   \\    /   O peration     | Website:  https://openfoam.org
    \\  /    A nd           | Version:  9
     \\/     M anipulation  |
\*---------------------------------------------------------------------------*/
FoamFile
{
    format      ascii;
    class       extendedFeatureEdgeMesh;
    location    "constant/extendedFeatureEdgeMesh";
    object      vessel.extendedFeatureEdgeMesh;
}
// * * * * * * * * * * * * * * * * * * * * * * * * * * * * * * * * * * * * * //

// points

897
(
(67.5967 140.504 9.715)
(67.625 140 9.715)
(67.5967 140.504 0.714995)
(67.5122 141.001 0.714995)
(67.5122 141.001 9.715)
(67.3725 141.486 0.714995)
(67.3725 141.486 9.715)
(67.1794 141.952 0.714995)
(67.1794 141.952 9.715)
(66.9353 142.394 0.714995)
(66.9353 142.394 9.715)
(66.6432 142.806 0.714995)
(66.6432 142.806 9.715)
(66.307 143.182 0.714995)
(66.307 143.182 9.715)
(65.9307 143.518 0.714995)
(65.9307 143.518 9.715)
(65.5191 143.81 0.714995)
(65.5191 143.81 9.715)
(65.0775 144.054 0.714995)
(65.0775 144.054 9.715)
(64.6113 144.247 0.714995)
(64.6113 144.247 9.715)
(64.1263 144.387 0.714995)
(64.1263 144.387 9.715)
(63.6288 144.472 0.714995)
(63.6288 144.472 9.715)
(63.125 144.5 0.714995)
(63.125 144.5 9.715)
(62.6212 144.472 0.714995)
(62.6212 144.472 9.715)
(62.1237 144.387 0.714995)
(62.1237 144.387 9.715)
(61.6387 144.247 0.714995)
(61.6387 144.247 9.715)
(61.1725 144.054 0.714995)
(61.1725 144.054 9.715)
(60.7309 143.81 0.714995)
(60.7309 143.81 9.715)
(60.3193 143.518 0.714995)
(60.3193 143.518 9.715)
(59.943 143.182 0.714995)
(59.943 143.182 9.715)
(59.6068 142.806 0.714995)
(59.6068 142.806 9.715)
(59.3147 142.394 0.714995)
(59.3147 142.394 9.715)
(59.0706 141.952 0.714995)
(59.0706 141.952 9.715)
(58.8775 141.486 0.714995)
(58.8775 141.486 9.715)
(58.7378 141.001 0.714995)
(58.7378 141.001 9.715)
(58.6533 140.504 0.714995)
(58.6533 140.504 9.715)
(58.625 140 0.714995)
(58.625 140 9.715)
(58.6533 139.496 0.714995)
(58.6533 139.496 9.715)
(58.7378 138.999 0.714995)
(58.7378 138.999 9.715)
(58.8775 138.514 0.714995)
(58.8775 138.514 9.715)
(59.0706 138.048 0.714995)
(59.0706 138.048 9.715)
(59.3147 137.606 0.714995)
(59.3147 137.606 9.715)
(59.6068 137.194 0.714995)
(59.6068 137.194 9.715)
(59.943 136.818 0.714995)
(59.943 136.818 9.715)
(60.3193 136.482 0.714995)
(60.3193 136.482 9.715)
(60.7309 136.19 0.714995)
(60.7309 136.19 9.715)
(61.1725 135.946 0.714995)
(61.1725 135.946 9.715)
(61.6387 135.753 0.714995)
(61.6387 135.753 9.715)
(62.1237 135.613 0.714995)
(62.1237 135.613 9.715)
(62.6212 135.528 0.714995)
(62.6212 135.528 9.715)
(63.125 135.5 0.714995)
(63.125 135.5 9.715)
(63.6288 135.528 0.714995)
(63.6288 135.528 9.715)
(64.1263 135.613 0.714995)
(64.1263 135.613 9.715)
(64.6113 135.753 0.714995)
(64.6113 135.753 9.715)
(65.0775 135.946 0.714995)
(65.0775 135.946 9.715)
(65.5191 136.19 0.714995)
(65.5191 136.19 9.715)
(65.9307 136.482 0.714995)
(65.9307 136.482 9.715)
(66.307 136.818 0.714995)
(66.307 136.818 9.715)
(66.6432 137.194 0.714995)
(66.6432 137.194 9.715)
(66.9353 137.606 0.714995)
(66.9353 137.606 9.715)
(67.1794 138.048 0.714995)
(67.1794 138.048 9.715)
(67.3725 138.514 0.714995)
(67.3725 138.514 9.715)
(67.5122 138.999 0.714995)
(67.5122 138.999 9.715)
(67.5967 139.496 0.714995)
(67.5967 139.496 9.715)
(67.625 140 0.714995)
(58.875 140 9.715)
(58.9027 140.484 9.715)
(58.9027 139.516 9.715)
(58.9855 139.037 9.715)
(59.1222 138.572 9.715)
(59.3111 138.125 9.715)
(59.5497 137.702 9.715)
(59.8349 137.31 9.715)
(60.163 136.952 9.715)
(60.5298 136.634 9.715)
(60.9303 136.361 9.715)
(61.3595 136.134 9.715)
(61.8117 135.958 9.715)
(62.281 135.835 9.715)
(62.7613 135.766 9.715)
(63.2464 135.752 9.715)
(63.7298 135.793 9.715)
(64.2054 135.89 9.715)
(64.6669 136.04 9.715)
(65.1083 136.241 9.715)
(65.5239 136.492 9.715)
(65.9082 136.788 9.715)
(66.2561 137.126 9.715)
(66.5633 137.502 9.715)
(66.8257 137.91 9.715)
(67.0398 138.346 9.715)
(67.2028 138.803 9.715)
(67.3128 139.275 9.715)
(67.3681 139.757 9.715)
(67.375 140 9.715)
(67.3681 140.243 9.715)
(67.3128 140.725 9.715)
(67.2028 141.197 9.715)
(67.0398 141.654 9.715)
(66.8257 142.09 9.715)
(66.5633 142.498 9.715)
(66.2561 142.874 9.715)
(65.9082 143.212 9.715)
(65.5239 143.508 9.715)
(65.1083 143.759 9.715)
(64.6669 143.96 9.715)
(64.2054 144.11 9.715)
(63.7298 144.207 9.715)
(63.2464 144.248 9.715)
(62.7613 144.234 9.715)
(62.281 144.165 9.715)
(61.8117 144.042 9.715)
(61.3595 143.866 9.715)
(60.9303 143.639 9.715)
(60.5298 143.366 9.715)
(60.163 143.048 9.715)
(59.8349 142.69 9.715)
(59.5497 142.298 9.715)
(59.3111 141.875 9.715)
(59.1222 141.428 9.715)
(58.9855 140.963 9.715)
(58.6533 8.50384 134.715)
(58.625 8 134.715)
(58.6533 8.50384 143.715)
(58.7378 9.00134 143.715)
(58.7378 9.00134 134.715)
(58.8775 9.48626 143.715)
(58.8775 9.48626 134.715)
(59.0706 9.95248 143.715)
(59.0706 9.95248 134.715)
(59.3147 10.3941 143.715)
(59.3147 10.3941 134.715)
(59.6068 10.8057 143.715)
(59.6068 10.8057 134.715)
(59.943 11.182 143.715)
(59.943 11.182 134.715)
(60.3193 11.5182 143.715)
(60.3193 11.5182 134.715)
(60.7309 11.8103 143.715)
(60.7309 11.8103 134.715)
(61.1725 12.0544 143.715)
(61.1725 12.0544 134.715)
(61.6387 12.2475 143.715)
(61.6387 12.2475 134.715)
(62.1237 12.3872 143.715)
(62.1237 12.3872 134.715)
(62.6212 12.4717 143.715)
(62.6212 12.4717 134.715)
(63.125 12.5 143.715)
(63.125 12.5 134.715)
(63.6288 12.4717 143.715)
(63.6288 12.4717 134.715)
(64.1263 12.3872 143.715)
(64.1263 12.3872 134.715)
(64.6113 12.2475 143.715)
(64.6113 12.2475 134.715)
(65.0775 12.0544 143.715)
(65.0775 12.0544 134.715)
(65.5191 11.8103 143.715)
(65.5191 11.8103 134.715)
(65.9307 11.5182 143.715)
(65.9307 11.5182 134.715)
(66.307 11.182 143.715)
(66.307 11.182 134.715)
(66.6432 10.8057 143.715)
(66.6432 10.8057 134.715)
(66.9353 10.3941 143.715)
(66.9353 10.3941 134.715)
(67.1794 9.95248 143.715)
(67.1794 9.95248 134.715)
(67.3725 9.48626 143.715)
(67.3725 9.48626 134.715)
(67.5122 9.00134 143.715)
(67.5122 9.00134 134.715)
(67.5967 8.50384 143.715)
(67.5967 8.50384 134.715)
(67.625 8 143.715)
(67.625 8 134.715)
(67.5967 7.49616 143.715)
(67.5967 7.49616 134.715)
(67.5122 6.99866 143.715)
(67.5122 6.99866 134.715)
(67.3725 6.51374 143.715)
(67.3725 6.51374 134.715)
(67.1794 6.04752 143.715)
(67.1794 6.04752 134.715)
(66.9353 5.60585 143.715)
(66.9353 5.60585 134.715)
(66.6432 5.1943 143.715)
(66.6432 5.1943 134.715)
(66.307 4.81802 143.715)
(66.307 4.81802 134.715)
(65.9307 4.48176 143.715)
(65.9307 4.48176 134.715)
(65.5191 4.18974 143.715)
(65.5191 4.18974 134.715)
(65.0775 3.94564 143.715)
(65.0775 3.94564 134.715)
(64.6113 3.75253 143.715)
(64.6113 3.75253 134.715)
(64.1263 3.61282 143.715)
(64.1263 3.61282 134.715)
(63.6288 3.5283 143.715)
(63.6288 3.5283 134.715)
(63.125 3.5 143.715)
(63.125 3.5 134.715)
(62.6212 3.5283 143.715)
(62.6212 3.5283 134.715)
(62.1237 3.61282 143.715)
(62.1237 3.61282 134.715)
(61.6387 3.75253 143.715)
(61.6387 3.75253 134.715)
(61.1725 3.94564 143.715)
(61.1725 3.94564 134.715)
(60.7309 4.18974 143.715)
(60.7309 4.18974 134.715)
(60.3193 4.48176 143.715)
(60.3193 4.48176 134.715)
(59.943 4.81802 143.715)
(59.943 4.81802 134.715)
(59.6068 5.1943 143.715)
(59.6068 5.1943 134.715)
(59.3147 5.60585 143.715)
(59.3147 5.60585 134.715)
(59.0706 6.04752 143.715)
(59.0706 6.04752 134.715)
(58.8775 6.51374 143.715)
(58.8775 6.51374 134.715)
(58.7378 6.99866 143.715)
(58.7378 6.99866 134.715)
(58.6533 7.49616 143.715)
(58.6533 7.49616 134.715)
(58.625 8 143.715)
(58.8819 8.24263 134.715)
(58.8819 7.75737 134.715)
(58.9372 8.72472 134.715)
(59.0471 9.19736 134.715)
(59.2102 9.6544 134.715)
(59.4243 10.0899 134.715)
(59.6867 10.4981 134.715)
(59.9939 10.8737 134.715)
(60.3418 11.2119 134.715)
(60.7261 11.5083 134.715)
(61.1417 11.7588 134.715)
(61.5831 11.9604 134.715)
(62.0446 12.1104 134.715)
(62.5202 12.2067 134.715)
(63.0036 12.2483 134.715)
(63.4887 12.2344 134.715)
(63.969 12.1653 134.715)
(64.4383 12.042 134.715)
(64.8905 11.8659 134.715)
(65.3197 11.6395 134.715)
(65.7203 11.3656 134.715)
(66.087 11.0478 134.715)
(66.4151 10.6903 134.715)
(66.7003 10.2977 134.715)
(66.9389 9.87519 134.715)
(67.1278 9.42821 134.715)
(67.2645 8.96261 134.715)
(67.3473 8.48446 134.715)
(67.375 8 134.715)
(67.3473 7.51554 134.715)
(67.2645 7.03739 134.715)
(67.1278 6.57179 134.715)
(66.9389 6.12481 134.715)
(66.7003 5.70228 134.715)
(66.4151 5.3097 134.715)
(66.087 4.95219 134.715)
(65.7203 4.63442 134.715)
(65.3197 4.36052 134.715)
(64.8905 4.13406 134.715)
(64.4383 3.95801 134.715)
(63.969 3.83465 134.715)
(63.4887 3.76559 134.715)
(63.0036 3.75173 134.715)
(62.5202 3.79326 134.715)
(62.0446 3.88963 134.715)
(61.5831 4.03958 134.715)
(61.1417 4.24116 134.715)
(60.7261 4.49174 134.715)
(60.3418 4.78806 134.715)
(59.9939 5.12626 134.715)
(59.6867 5.50191 134.715)
(59.4243 5.91013 134.715)
(59.2102 6.3456 134.715)
(59.0471 6.80264 134.715)
(58.9372 7.27528 134.715)
(62.0239 135.895 11.725)
(61.6714 136.006 11.7325)
(62.387 135.815 11.7195)
(61.3294 136.148 11.7416)
(61 136.319 11.7523)
(60.3932 136.744 11.7767)
(59.8693 137.268 11.8027)
(59.4444 137.875 11.8271)
(59.2736 138.203 11.8377)
(59.1313 138.546 11.847)
(59.0194 138.902 11.8545)
(58.9396 139.262 11.86)
(58.8913 139.628 11.8633)
(58.875 140 11.8645)
(58.8913 140.372 11.8633)
(58.9396 140.738 11.86)
(59.0195 141.099 11.8545)
(59.1313 141.454 11.847)
(59.2737 141.797 11.8377)
(59.4444 142.125 11.8271)
(59.8693 142.732 11.8027)
(60.3932 143.256 11.7767)
(61 143.681 11.7523)
(61.3296 143.852 11.7416)
(61.6714 143.994 11.7325)
(62.0235 144.105 11.725)
(62.387 144.185 11.7195)
(62.7542 144.234 11.7161)
(65.8568 143.256 11.7767)
(66.3807 142.732 11.8027)
(64.2236 144.106 11.725)
(64.5786 143.994 11.7325)
(63.125 144.25 11.715)
(63.4967 144.234 11.7161)
(63.863 144.185 11.7195)
(64.9222 143.851 11.7417)
(65.25 143.681 11.7523)
(66.8056 142.125 11.8271)
(66.9771 141.796 11.8378)
(67.1187 141.454 11.847)
(67.3589 139.631 11.8633)
(67.3104 139.262 11.86)
(67.375 140 11.8645)
(67.2299 141.101 11.8544)
(67.3104 140.738 11.86)
(67.3589 140.37 11.8633)
(67.2301 138.9 11.8544)
(67.1187 138.546 11.847)
(66.9771 138.204 11.8378)
(65.25 136.319 11.7523)
(64.9208 136.148 11.7417)
(66.8056 137.875 11.8271)
(66.3807 137.268 11.8027)
(65.8568 136.744 11.7767)
(64.5786 136.006 11.7325)
(64.2252 135.895 11.725)
(63.863 135.815 11.7195)
(63.4946 135.766 11.7161)
(63.125 135.75 11.715)
(62.755 135.766 11.7161)
(65.25 4.31939 132.678)
(65.8568 4.74431 132.653)
(64.9222 4.14872 132.688)
(63.4968 3.7663 132.714)
(63.863 3.81457 132.71)
(64.2236 3.89446 132.705)
(64.5786 4.00631 132.697)
(66.3807 5.26815 132.627)
(66.8056 5.875 132.603)
(66.9771 6.20461 132.592)
(67.1187 6.54641 132.583)
(67.2298 6.89855 132.576)
(67.3104 7.26199 132.57)
(67.3588 7.62925 132.567)
(67.375 8 132.566)
(67.3587 8.37173 132.567)
(67.3104 8.738 132.57)
(67.2306 9.09858 132.576)
(67.1187 9.45358 132.583)
(66.9763 9.79716 132.592)
(65.25 11.6806 132.678)
(64.9205 11.8521 132.688)
(66.8056 10.125 132.603)
(66.3807 10.7318 132.627)
(65.8568 11.2557 132.653)
(64.5786 11.9937 132.697)
(64.2262 12.1048 132.705)
(63.863 12.1854 132.71)
(61 11.6806 132.678)
(60.3932 11.2557 132.653)
(63.4949 12.2339 132.714)
(63.125 12.25 132.715)
(62.7556 12.2339 132.714)
(62.387 12.1854 132.71)
(62.0247 12.1051 132.705)
(61.6714 11.9937 132.697)
(61.3294 11.8521 132.688)
(59.8693 10.7318 132.627)
(59.4444 10.125 132.603)
(59.273 9.79579 132.592)
(59.1313 9.45358 132.583)
(59.0199 9.10023 132.576)
(58.9396 8.738 132.57)
(58.8911 8.36962 132.567)
(58.875 8 132.566)
(58.8911 7.63001 132.567)
(58.9396 7.26199 132.57)
(59.0201 6.89891 132.576)
(59.1313 6.54641 132.583)
(59.2729 6.20442 132.592)
(59.4444 5.875 132.603)
(59.8693 5.26815 132.627)
(60.3932 4.74431 132.653)
(61 4.31939 132.678)
(62.387 3.81457 132.71)
(62.7534 3.76628 132.714)
(63.125 3.75 132.715)
(61.3279 4.14863 132.688)
(61.6714 4.00631 132.697)
(62.0265 3.89443 132.705)
(60.3932 143.256 9.77473)
(61 143.681 9.75113)
(59.8693 142.732 9.79985)
(59.4444 142.125 9.82347)
(59.2729 141.796 9.83382)
(59.1313 141.454 9.84273)
(59.0201 141.101 9.84994)
(58.9396 140.738 9.8553)
(58.8911 140.37 9.85857)
(58.875 140 9.85967)
(58.8911 139.631 9.85857)
(58.9396 139.262 9.8553)
(59.0199 138.9 9.84996)
(59.1313 138.546 9.84273)
(59.2729 138.204 9.83382)
(59.4444 137.875 9.82347)
(59.8693 137.268 9.79985)
(60.3932 136.744 9.77473)
(61 136.319 9.75113)
(61.3292 136.148 9.7408)
(61.6714 136.006 9.7319)
(62.0248 135.895 9.72468)
(62.387 135.815 9.71936)
(62.7554 135.766 9.71609)
(63.125 135.75 9.715)
(63.495 135.766 9.71609)
(63.863 135.815 9.71936)
(64.2261 135.895 9.7247)
(64.5786 136.006 9.7319)
(64.9206 136.148 9.7408)
(65.25 136.319 9.75113)
(65.8568 136.744 9.77473)
(66.3807 137.268 9.79985)
(66.8056 137.875 9.82347)
(66.9764 138.203 9.83377)
(67.1187 138.546 9.84273)
(67.2306 138.902 9.84999)
(67.3104 139.262 9.8553)
(67.3587 139.628 9.85856)
(67.375 140 9.85967)
(67.3587 140.372 9.85856)
(67.3104 140.738 9.8553)
(67.2305 141.099 9.84999)
(67.1187 141.454 9.84273)
(66.9763 141.797 9.83377)
(66.8056 142.125 9.82347)
(65.8568 143.256 9.77473)
(66.3807 142.732 9.79985)
(61.3278 143.851 9.74084)
(61.6714 143.994 9.7319)
(62.0264 144.106 9.72465)
(62.387 144.185 9.71936)
(62.7533 144.234 9.71611)
(63.125 144.25 9.715)
(63.4958 144.234 9.7161)
(63.863 144.185 9.71936)
(64.2264 144.105 9.7247)
(64.5786 143.994 9.7319)
(64.9204 143.852 9.74079)
(65.25 143.681 9.75113)
(63.125 170 9.715)
(70.5171 170 10.1537)
(55.7329 170 10.1537)
(63.125 0 9.715)
(55.7329 0 10.1537)
(70.5171 0 10.1537)
(67.2298 9.10145 134.58)
(67.3104 8.738 134.575)
(67.3588 8.37075 134.571)
(67.375 8 134.57)
(67.3587 7.62826 134.571)
(67.3104 7.26199 134.575)
(59.4225 10.0865 134.605)
(59.4444 10.125 134.607)
(65.8568 11.2557 134.655)
(66.3807 10.7318 134.63)
(59.8693 10.7318 134.63)
(60.3932 11.2557 134.655)
(63.125 170 134.715)
(59.4225 170 134.605)
(61 11.6806 134.679)
(66.8275 170 134.605)
(61.3279 11.8514 134.689)
(61.6714 11.9937 134.698)
(62.0265 12.1056 134.705)
(62.387 12.1854 134.711)
(62.7534 12.2337 134.714)
(63.125 12.25 134.715)
(63.4968 12.2337 134.714)
(63.863 12.1854 134.711)
(64.2236 12.1055 134.705)
(64.5786 11.9937 134.698)
(64.9223 11.8513 134.689)
(65.25 11.6806 134.679)
(66.8275 10.0865 134.605)
(67.1187 9.45358 134.587)
(74.1806 170 133.729)
(66.8056 10.125 134.607)
(59.0199 6.89978 134.58)
(58.9396 7.26199 134.575)
(58.8911 7.63038 134.571)
(58.875 8 134.57)
(58.8911 8.36999 134.571)
(58.9396 8.738 134.575)
(59.0201 9.10109 134.58)
(59.1313 9.45358 134.587)
(52.0694 170 133.729)
(66.8056 5.875 134.607)
(66.3807 5.26815 134.63)
(67.2306 6.90142 134.58)
(67.1187 6.54641 134.587)
(66.8275 0 134.605)
(74.1806 0 133.729)
(66.8275 5.91345 134.605)
(65.8568 4.74431 134.655)
(65.25 4.31939 134.679)
(64.9205 4.14789 134.689)
(64.5786 4.00631 134.698)
(64.2262 3.89515 134.705)
(63.125 0 134.715)
(63.863 3.81457 134.711)
(63.4949 3.76613 134.714)
(63.125 3.75 134.715)
(61.6714 4.00631 134.698)
(61.3294 4.14793 134.689)
(62.7556 3.76608 134.714)
(62.387 3.81457 134.711)
(59.4225 0 134.605)
(62.0247 3.89491 134.705)
(61 4.31939 134.679)
(60.3932 4.74431 134.655)
(59.8693 5.26815 134.63)
(59.4444 5.875 134.607)
(59.4225 5.91345 134.605)
(52.0694 0 133.729)
(59.1313 6.54641 134.587)
(44.8714 170 131.99)
(44.8714 0 131.99)
(37.9298 170 129.412)
(37.9298 0 129.412)
(31.3418 170 126.03)
(31.3418 0 126.03)
(25.2 170 121.893)
(25.2 0 121.893)
(19.5906 170 117.059)
(19.5906 0 117.059)
(14.5923 170 111.595)
(14.5923 0 111.595)
(10.2753 170 105.579)
(10.2753 0 105.579)
(6.70014 170 99.0941)
(6.70014 0 99.0941)
(3.9171 170 92.2319)
(3.9171 0 92.2319)
(1.96522 170 85.0887)
(1.96522 0 85.0887)
(0.871886 170 77.7647)
(0.871886 0 77.7647)
(0.652447 170 70.3629)
(0.652447 0 70.3629)
(1.30999 170 62.9871)
(1.30999 0 62.9871)
(2.83527 170 55.7408)
(2.83527 0 55.7408)
(5.2069 170 48.7258)
(5.2069 0 48.7258)
(8.39157 170 42.0405)
(8.39157 0 42.0405)
(12.3446 170 35.7788)
(12.3446 0 35.7788)
(17.0104 170 30.0286)
(17.0104 0 30.0286)
(22.3236 170 24.8705)
(22.3236 0 24.8705)
(28.2096 170 20.3771)
(28.2096 0 20.3771)
(34.5857 170 16.6114)
(34.5857 0 16.6114)
(41.3624 170 13.6263)
(41.3624 0 13.6263)
(48.4446 170 11.4636)
(48.4446 0 11.4636)
(77.8054 170 11.4636)
(77.8054 0 11.4636)
(84.8876 170 13.6263)
(84.8876 0 13.6263)
(91.6643 170 16.6114)
(91.6643 0 16.6114)
(98.0404 170 20.3771)
(98.0404 0 20.3771)
(103.926 170 24.8705)
(103.926 0 24.8705)
(109.24 170 30.0286)
(109.24 0 30.0286)
(113.905 170 35.7788)
(113.905 0 35.7788)
(117.858 170 42.0405)
(117.858 0 42.0405)
(121.043 170 48.7258)
(121.043 0 48.7258)
(123.415 170 55.7408)
(123.415 0 55.7408)
(124.94 170 62.9871)
(124.94 0 62.9871)
(125.598 170 70.3629)
(125.598 0 70.3629)
(125.378 170 77.7647)
(125.378 0 77.7647)
(124.285 170 85.0887)
(124.285 0 85.0887)
(122.333 170 92.2319)
(122.333 0 92.2319)
(119.55 170 99.0941)
(119.55 0 99.0941)
(115.975 170 105.579)
(115.975 0 105.579)
(111.658 170 111.595)
(111.658 0 111.595)
(106.659 170 117.059)
(106.659 0 117.059)
(101.05 170 121.893)
(101.05 0 121.893)
(94.9082 170 126.03)
(94.9082 0 126.03)
(88.3202 170 129.412)
(88.3202 0 129.412)
(81.3785 170 131.99)
(81.3785 0 131.99)
(67.3681 140.243 0.814997)
(67.3681 139.757 0.814997)
(67.3128 140.725 0.814997)
(67.2028 141.197 0.814997)
(67.0398 141.654 0.814997)
(66.8257 142.09 0.814997)
(66.5633 142.498 0.814997)
(66.2561 142.874 0.814997)
(65.9082 143.212 0.814997)
(65.5239 143.508 0.814997)
(65.1083 143.759 0.814997)
(64.6669 143.96 0.814997)
(64.2054 144.11 0.814997)
(63.7298 144.207 0.814997)
(63.2464 144.248 0.814997)
(62.7613 144.234 0.814997)
(62.281 144.165 0.814997)
(61.8117 144.042 0.814997)
(61.3595 143.866 0.814997)
(60.9303 143.639 0.814997)
(60.5298 143.366 0.814997)
(60.163 143.048 0.814997)
(59.8349 142.69 0.814997)
(59.5497 142.298 0.814997)
(59.3111 141.875 0.814997)
(59.1222 141.428 0.814997)
(58.9855 140.963 0.814997)
(58.9027 140.484 0.814997)
(58.875 140 0.814997)
(58.9027 139.516 0.814997)
(58.9855 139.037 0.814997)
(59.1222 138.572 0.814997)
(59.3111 138.125 0.814997)
(59.5497 137.702 0.814997)
(59.8349 137.31 0.814997)
(60.163 136.952 0.814997)
(60.5298 136.634 0.814997)
(60.9303 136.361 0.814997)
(61.3595 136.134 0.814997)
(61.8117 135.958 0.814997)
(62.281 135.835 0.814997)
(62.7613 135.766 0.814997)
(63.2464 135.752 0.814997)
(63.7298 135.793 0.814997)
(64.2054 135.89 0.814997)
(64.6669 136.04 0.814997)
(65.1083 136.241 0.814997)
(65.5239 136.492 0.814997)
(65.9082 136.788 0.814997)
(66.2561 137.126 0.814997)
(66.5633 137.502 0.814997)
(66.8257 137.91 0.814997)
(67.0398 138.346 0.814997)
(67.2028 138.803 0.814997)
(67.3128 139.275 0.814997)
(67.375 8 143.615)
(67.3473 8.48446 143.615)
(67.2645 8.96261 143.615)
(67.1278 9.42821 143.615)
(66.9389 9.87519 143.615)
(66.7003 10.2977 143.615)
(66.4151 10.6903 143.615)
(66.087 11.0478 143.615)
(65.7203 11.3656 143.615)
(65.3197 11.6395 143.615)
(64.8905 11.8659 143.615)
(64.4383 12.042 143.615)
(63.969 12.1653 143.615)
(63.4887 12.2344 143.615)
(63.0036 12.2483 143.615)
(62.5202 12.2067 143.615)
(62.0446 12.1104 143.615)
(61.5831 11.9604 143.615)
(61.1417 11.7588 143.615)
(60.7261 11.5083 143.615)
(60.3418 11.2119 143.615)
(59.9939 10.8737 143.615)
(59.6867 10.4981 143.615)
(59.4243 10.0899 143.615)
(59.2102 9.6544 143.615)
(59.0471 9.19736 143.615)
(58.9372 8.72472 143.615)
(58.8819 8.24263 143.615)
(58.8819 7.75737 143.615)
(58.9372 7.27528 143.615)
(59.0471 6.80264 143.615)
(59.2102 6.3456 143.615)
(59.4243 5.91013 143.615)
(59.6867 5.50191 143.615)
(59.9939 5.12626 143.615)
(60.3418 4.78806 143.615)
(60.7261 4.49174 143.615)
(61.1417 4.24116 143.615)
(61.5831 4.03958 143.615)
(62.0446 3.88963 143.615)
(62.5202 3.79326 143.615)
(63.0036 3.75173 143.615)
(63.4887 3.76559 143.615)
(63.969 3.83465 143.615)
(64.4383 3.95801 143.615)
(64.8905 4.13406 143.615)
(65.3197 4.36052 143.615)
(65.7203 4.63442 143.615)
(66.087 4.95219 143.615)
(66.4151 5.3097 143.615)
(66.7003 5.70228 143.615)
(66.9389 6.12481 143.615)
(67.1278 6.57179 143.615)
(67.2645 7.03739 143.615)
(67.3473 7.51554 143.615)
(63.125 169 11.715)
(55.8325 169 12.1561)
(70.4175 169 12.1561)
(63.125 1 11.715)
(70.4175 1 12.1561)
(55.8325 1 12.1561)
(70.4175 1 132.274)
(63.125 1 132.715)
(63.125 169 132.715)
(70.4175 169 132.274)
(55.8325 169 132.274)
(55.8325 1 132.274)
(77.6036 169 13.473)
(77.6036 1 13.473)
(84.5786 169 15.6465)
(84.5786 1 15.6465)
(91.2408 169 18.6449)
(91.2408 1 18.6449)
(97.4929 169 22.4245)
(97.4929 1 22.4245)
(103.244 169 26.9301)
(103.244 1 26.9301)
(108.41 169 32.0961)
(108.41 1 32.0961)
(112.915 169 37.8471)
(112.915 1 37.8471)
(116.695 169 44.0993)
(116.695 1 44.0993)
(119.693 169 50.7614)
(119.693 1 50.7614)
(121.867 169 57.7364)
(121.867 1 57.7364)
(123.184 169 64.9225)
(123.184 1 64.9225)
(123.625 169 72.215)
(123.625 1 72.215)
(123.184 169 79.5075)
(123.184 1 79.5075)
(121.867 169 86.6936)
(121.867 1 86.6936)
(119.693 169 93.6686)
(119.693 1 93.6686)
(116.695 169 100.331)
(116.695 1 100.331)
(112.915 169 106.583)
(112.915 1 106.583)
(108.41 169 112.334)
(108.41 1 112.334)
(103.244 169 117.5)
(103.244 1 117.5)
(97.4929 169 122.006)
(97.4929 1 122.006)
(91.2408 169 125.785)
(91.2408 1 125.785)
(84.5786 169 128.783)
(84.5786 1 128.783)
(77.6036 169 130.957)
(77.6036 1 130.957)
(48.6464 169 130.957)
(48.6464 1 130.957)
(41.6714 169 128.783)
(41.6714 1 128.783)
(35.0093 169 125.785)
(35.0093 1 125.785)
(28.7571 169 122.006)
(28.7571 1 122.006)
(23.0061 169 117.5)
(23.0061 1 117.5)
(17.8401 169 112.334)
(17.8401 1 112.334)
(13.3345 169 106.583)
(13.3345 1 106.583)
(9.55491 169 100.331)
(9.55491 1 100.331)
(6.55652 169 93.6686)
(6.55652 1 93.6686)
(4.38302 169 86.6936)
(4.38302 1 86.6936)
(3.06611 169 79.5075)
(3.06611 1 79.5075)
(2.625 169 72.215)
(2.625 1 72.215)
(3.06611 169 64.9225)
(3.06611 1 64.9225)
(4.38302 169 57.7364)
(4.38302 1 57.7364)
(6.55652 169 50.7614)
(6.55652 1 50.7614)
(9.55491 169 44.0993)
(9.55491 1 44.0993)
(13.3345 169 37.8471)
(13.3345 1 37.8471)
(17.8401 169 32.0961)
(17.8401 1 32.0961)
(23.0061 169 26.9301)
(23.0061 1 26.9301)
(28.7571 169 22.4245)
(28.7571 1 22.4245)
(35.0093 169 18.6449)
(35.0093 1 18.6449)
(41.6714 169 15.6465)
(41.6714 1 15.6465)
(48.6464 169 13.473)
(48.6464 1 13.473)
)

// edges

897
(
(0 1)
(2 3)
(4 0)
(3 5)
(6 4)
(5 7)
(8 6)
(7 9)
(10 8)
(9 11)
(12 10)
(11 13)
(14 12)
(13 15)
(16 14)
(15 17)
(18 16)
(17 19)
(20 18)
(19 21)
(22 20)
(21 23)
(24 22)
(23 25)
(26 24)
(25 27)
(28 26)
(27 29)
(30 28)
(29 31)
(32 30)
(31 33)
(34 32)
(33 35)
(36 34)
(35 37)
(38 36)
(37 39)
(40 38)
(39 41)
(42 40)
(41 43)
(44 42)
(43 45)
(46 44)
(45 47)
(48 46)
(47 49)
(50 48)
(49 51)
(52 50)
(51 53)
(54 52)
(53 55)
(56 54)
(55 57)
(58 56)
(57 59)
(60 58)
(59 61)
(62 60)
(61 63)
(64 62)
(63 65)
(66 64)
(65 67)
(68 66)
(67 69)
(70 68)
(69 71)
(72 70)
(71 73)
(74 72)
(73 75)
(76 74)
(75 77)
(78 76)
(77 79)
(80 78)
(79 81)
(82 80)
(81 83)
(84 82)
(83 85)
(86 84)
(85 87)
(88 86)
(87 89)
(90 88)
(89 91)
(92 90)
(91 93)
(94 92)
(93 95)
(96 94)
(95 97)
(98 96)
(97 99)
(100 98)
(99 101)
(102 100)
(101 103)
(104 102)
(103 105)
(106 104)
(105 107)
(108 106)
(107 109)
(110 108)
(109 111)
(1 110)
(111 2)
(112 113)
(114 112)
(115 114)
(116 115)
(117 116)
(118 117)
(119 118)
(120 119)
(121 120)
(122 121)
(123 122)
(124 123)
(125 124)
(126 125)
(127 126)
(128 127)
(129 128)
(130 129)
(131 130)
(132 131)
(133 132)
(134 133)
(135 134)
(136 135)
(137 136)
(138 137)
(139 138)
(140 139)
(141 140)
(142 141)
(143 142)
(144 143)
(145 144)
(146 145)
(147 146)
(148 147)
(149 148)
(150 149)
(151 150)
(152 151)
(153 152)
(154 153)
(155 154)
(156 155)
(157 156)
(158 157)
(159 158)
(160 159)
(161 160)
(162 161)
(163 162)
(164 163)
(165 164)
(166 165)
(167 166)
(113 167)
(168 169)
(170 171)
(172 168)
(171 173)
(174 172)
(173 175)
(176 174)
(175 177)
(178 176)
(177 179)
(180 178)
(179 181)
(182 180)
(181 183)
(184 182)
(183 185)
(186 184)
(185 187)
(188 186)
(187 189)
(190 188)
(189 191)
(192 190)
(191 193)
(194 192)
(193 195)
(196 194)
(195 197)
(198 196)
(197 199)
(200 198)
(199 201)
(202 200)
(201 203)
(204 202)
(203 205)
(206 204)
(205 207)
(208 206)
(207 209)
(210 208)
(209 211)
(212 210)
(211 213)
(214 212)
(213 215)
(216 214)
(215 217)
(218 216)
(217 219)
(220 218)
(219 221)
(222 220)
(221 223)
(224 222)
(223 225)
(226 224)
(225 227)
(228 226)
(227 229)
(230 228)
(229 231)
(232 230)
(231 233)
(234 232)
(233 235)
(236 234)
(235 237)
(238 236)
(237 239)
(240 238)
(239 241)
(242 240)
(241 243)
(244 242)
(243 245)
(246 244)
(245 247)
(248 246)
(247 249)
(250 248)
(249 251)
(252 250)
(251 253)
(254 252)
(253 255)
(256 254)
(255 257)
(258 256)
(257 259)
(260 258)
(259 261)
(262 260)
(261 263)
(264 262)
(263 265)
(266 264)
(265 267)
(268 266)
(267 269)
(270 268)
(269 271)
(272 270)
(271 273)
(274 272)
(273 275)
(276 274)
(275 277)
(278 276)
(277 279)
(169 278)
(279 170)
(280 281)
(282 280)
(283 282)
(284 283)
(285 284)
(286 285)
(287 286)
(288 287)
(289 288)
(290 289)
(291 290)
(292 291)
(293 292)
(294 293)
(295 294)
(296 295)
(297 296)
(298 297)
(299 298)
(300 299)
(301 300)
(302 301)
(303 302)
(304 303)
(305 304)
(306 305)
(307 306)
(308 307)
(309 308)
(310 309)
(311 310)
(312 311)
(313 312)
(314 313)
(315 314)
(316 315)
(317 316)
(318 317)
(319 318)
(320 319)
(321 320)
(322 321)
(323 322)
(324 323)
(325 324)
(326 325)
(327 326)
(328 327)
(329 328)
(330 329)
(331 330)
(332 331)
(333 332)
(334 333)
(281 334)
(335 336)
(337 335)
(336 338)
(338 339)
(339 340)
(340 341)
(341 342)
(342 343)
(343 344)
(344 345)
(345 346)
(347 348)
(348 349)
(349 350)
(350 351)
(351 352)
(352 353)
(353 354)
(354 355)
(355 356)
(356 357)
(357 358)
(358 359)
(359 360)
(360 361)
(361 362)
(363 364)
(365 366)
(362 367)
(367 368)
(368 369)
(369 365)
(366 370)
(370 371)
(371 363)
(364 372)
(372 373)
(373 374)
(375 376)
(377 375)
(374 378)
(378 379)
(379 380)
(376 381)
(381 382)
(382 383)
(384 385)
(383 386)
(386 387)
(387 388)
(388 384)
(385 389)
(389 390)
(390 391)
(391 392)
(392 393)
(393 394)
(394 337)
(395 396)
(397 395)
(398 399)
(399 400)
(400 401)
(401 397)
(396 402)
(402 403)
(403 404)
(404 405)
(405 406)
(406 407)
(407 408)
(408 409)
(409 410)
(411 412)
(412 413)
(413 414)
(415 416)
(414 417)
(417 418)
(418 419)
(419 415)
(416 420)
(420 421)
(421 422)
(423 424)
(422 425)
(425 426)
(426 427)
(427 428)
(428 429)
(429 430)
(430 431)
(431 423)
(424 432)
(432 433)
(433 434)
(435 436)
(436 437)
(437 438)
(438 439)
(439 440)
(440 441)
(441 442)
(442 443)
(443 444)
(444 445)
(445 446)
(446 447)
(447 448)
(449 450)
(450 451)
(451 398)
(448 452)
(452 453)
(453 454)
(454 449)
(380 377)
(410 411)
(434 435)
(346 347)
(455 456)
(457 455)
(458 457)
(459 458)
(460 459)
(461 460)
(462 461)
(463 462)
(464 463)
(465 464)
(466 465)
(467 466)
(468 467)
(469 468)
(470 469)
(471 470)
(472 471)
(473 472)
(474 473)
(475 474)
(476 475)
(477 476)
(478 477)
(479 478)
(480 479)
(481 480)
(482 481)
(483 482)
(484 483)
(485 484)
(486 485)
(487 486)
(488 487)
(489 488)
(490 489)
(491 490)
(492 491)
(493 492)
(494 493)
(495 494)
(496 495)
(497 496)
(498 497)
(499 498)
(500 499)
(501 502)
(502 500)
(456 503)
(503 504)
(504 505)
(505 506)
(506 507)
(507 508)
(508 509)
(509 510)
(510 511)
(511 512)
(512 513)
(513 514)
(514 501)
(515 516)
(517 515)
(518 519)
(520 518)
(521 522)
(522 523)
(523 524)
(524 525)
(525 526)
(527 528)
(529 530)
(528 531)
(531 532)
(533 534)
(532 535)
(536 533)
(535 537)
(537 538)
(538 539)
(539 540)
(540 541)
(541 542)
(542 543)
(543 544)
(544 545)
(545 546)
(546 547)
(547 548)
(548 529)
(549 550)
(551 536)
(552 549)
(530 552)
(553 554)
(554 555)
(555 556)
(556 557)
(557 558)
(558 559)
(560 527)
(534 561)
(559 560)
(562 563)
(526 564)
(564 565)
(566 567)
(565 568)
(568 562)
(563 569)
(569 570)
(570 571)
(571 572)
(572 573)
(574 566)
(573 575)
(575 576)
(576 577)
(578 579)
(577 580)
(580 581)
(582 574)
(581 583)
(583 578)
(579 584)
(584 585)
(585 586)
(586 587)
(587 588)
(589 582)
(588 590)
(590 553)
(561 591)
(592 589)
(591 593)
(594 592)
(593 595)
(596 594)
(595 597)
(598 596)
(597 599)
(600 598)
(599 601)
(602 600)
(601 603)
(604 602)
(603 605)
(606 604)
(605 607)
(608 606)
(607 609)
(610 608)
(609 611)
(612 610)
(611 613)
(614 612)
(613 615)
(616 614)
(615 617)
(618 616)
(617 619)
(620 618)
(619 621)
(622 620)
(621 623)
(624 622)
(623 625)
(626 624)
(625 627)
(628 626)
(627 629)
(630 628)
(629 631)
(632 630)
(631 633)
(634 632)
(633 635)
(636 634)
(635 517)
(519 636)
(516 637)
(638 520)
(637 639)
(640 638)
(639 641)
(642 640)
(641 643)
(644 642)
(643 645)
(646 644)
(645 647)
(648 646)
(647 649)
(650 648)
(649 651)
(652 650)
(651 653)
(654 652)
(653 655)
(656 654)
(655 657)
(658 656)
(657 659)
(660 658)
(659 661)
(662 660)
(661 663)
(664 662)
(663 665)
(666 664)
(665 667)
(668 666)
(667 669)
(670 668)
(669 671)
(672 670)
(671 673)
(674 672)
(673 675)
(676 674)
(675 677)
(678 676)
(677 679)
(680 678)
(679 681)
(682 680)
(681 551)
(567 682)
(550 521)
(683 684)
(685 683)
(686 685)
(687 686)
(688 687)
(689 688)
(690 689)
(691 690)
(692 691)
(693 692)
(694 693)
(695 694)
(696 695)
(697 696)
(698 697)
(699 698)
(700 699)
(701 700)
(702 701)
(703 702)
(704 703)
(705 704)
(706 705)
(707 706)
(708 707)
(709 708)
(710 709)
(711 710)
(712 711)
(713 712)
(714 713)
(715 714)
(716 715)
(717 716)
(718 717)
(719 718)
(720 719)
(721 720)
(722 721)
(723 722)
(724 723)
(725 724)
(726 725)
(727 726)
(728 727)
(729 728)
(730 729)
(731 730)
(732 731)
(733 732)
(734 733)
(735 734)
(736 735)
(737 736)
(684 737)
(738 739)
(739 740)
(740 741)
(741 742)
(742 743)
(743 744)
(744 745)
(745 746)
(746 747)
(747 748)
(748 749)
(749 750)
(750 751)
(751 752)
(752 753)
(753 754)
(754 755)
(755 756)
(756 757)
(757 758)
(758 759)
(759 760)
(760 761)
(761 762)
(762 763)
(763 764)
(764 765)
(765 766)
(766 767)
(767 768)
(768 769)
(769 770)
(770 771)
(771 772)
(772 773)
(773 774)
(774 775)
(775 776)
(776 777)
(777 778)
(778 779)
(779 780)
(780 781)
(781 782)
(782 783)
(783 784)
(784 785)