/*--------------------------------*- C++ -*----------------------------------*\
  =========                 |
  \\      /  F ield         | OpenFOAM: The Open Source CFD Toolbox
   \\    /   O peration     | Website:  https://openfoam.org
    \\  /    A nd           | Version:  9
     \\/     M anipulation  |
\*---------------------------------------------------------------------------*/
FoamFile
{
    format      ascii;
    class       extendedFeatureEdgeMesh;
    location    "constant/extendedFeatureEdgeMesh";
    object      drafttube.extendedFeatureEdgeMesh;
}
// * * * * * * * * * * * * * * * * * * * * * * * * * * * * * * * * * * * * * //

// points

32
(
(283.25 45.2028 456.052)
(283.25 45.2028 316.052)
(283.25 232.703 456.052)
(283.25 232.703 316.052)
(143.249 45.2028 316.052)
(143.249 232.703 316.052)
(143.249 45.2028 456.052)
(143.249 232.703 456.052)
(283.25 307.703 456.052)
(283.25 495.203 456.052)
(143.249 307.703 456.052)
(143.249 495.203 456.052)
(143.249 307.703 316.052)
(143.249 495.203 316.052)
(283.25 307.703 316.052)
(283.25 495.203 316.052)
(145.249 45.2028 454.052)
(145.249 45.2028 318.052)
(145.249 232.703 454.052)
(145.249 232.703 318.052)
(281.25 45.2028 318.052)
(281.25 232.703 318.052)
(281.25 45.2028 454.052)
(281.25 232.703 454.052)
(281.25 495.203 454.052)
(281.25 495.203 318.052)
(145.249 495.203 318.052)
(145.249 495.203 454.052)
(145.249 307.703 454.052)
(281.25 307.703 454.052)
(281.25 307.703 318.052)
(145.249 307.703 318.052)
)

// edges

48
(
(2 0)
(0 1)
(1 3)
(3 2)
(1 4)
(4 5)
(5 3)
(4 6)
(6 7)
(7 5)
(6 0)
(2 7)
(16 17)
(19 18)
(17 20)
(21 19)
(20 22)
(23 21)
(22 16)
(18 23)
(8 9)
(10 8)
(11 10)
(9 11)
(12 10)
(13 12)
(11 13)
(14 12)
(15 14)
(13 15)
(8 14)
(15 9)
(25 24)
(26 25)
(27 26)
(24 27)
(29 28)
(30 29)
(31 30)
(28 31)
(18 16)
(17 19)
(20 21)
(22 23)
(28 27)
(24 29)
(25 30)
(26 31)
)

// concaveStart mixedStart nonFeatureStart
16 16 32
// internalStart flatStart openStart multipleStart
40 48 48 48
// normals

64
(
(1 -0 0)
(-0 0 1)
(0 -1 0)
(1 0 0)
(0 0 -1)
(-0 1 0)
(0 -1 -0)
(-0 0 -1)
(-1 0 0)
(0 1 0)
(-0 -1 0)
(-1 0 0)
(0 0 1)
(0 1 0)
(0 -1 0)
(0 1 -0)
(1 -0 0)
(-0 -1 -0)
(1 0 0)
(0 1 -0)
(0 0 1)
(0 -1 -0)
(-0 0 1)
(0 1 0)
(-1 0 0)
(0 -1 0)
(-1 0 0)
(-0 1 0)
(0 0 -1)
(0 -1 0)
(-0 0 -1)
(0 1 -0)
(0 -0 1)
(1 -0 0)
(0 -1 0)
(0 0 1)
(-1 0 0)
(0 1 -0)
(-0 -1 0)
(-1 0 0)
(0 0 -1)
(0 1 0)
(0 -1 -0)
(0 0 -1)
(1 0 0)
(0 1 0)
(0 -1 0)
(-0 1 0)
(-0 1 0)
(-1 0 0)
(0 1 0)
(0 0 1)
(0 1 -0)
(1 -0 0)
(0 1 -0)
(0 0 -1)
(0 0 -1)
(0 -1 0)
(-1 0 0)
(0 -1 0)
(0 -0 1)
(0 -1 -0)
(1 0 0)
(-0 -1 -0)
)

// normal volume types

64
(
0
0
0
0
0
0
0
0
0
0
0
0
0
0
0
0
0
0
0
0
0
0
0
0
0
0
0
0
0
0
0
0
0
0
0
0
0
0
0
0
0
0
0
0
0
0
0
0
0
0
0
0
0
0
0
0
0
0
0
0
0
0
0
0
)

// normalDirections

48
(
2(1 -1)
2(1 -1)
2(1 -1)
2(1 -1)
2(1 -1)
2(1 -1)
2(1 -1)
2(1 -1)
2(1 -1)
2(1 -1)
2(1 -1)
2(1 -1)
2(1 -1)
2(1 -1)
2(1 -1)
2(1 -1)
2(1 -1)
2(1 -1)
2(1 -1)
2(1 -1)
2(1 -1)
2(1 -1)
2(1 -1)
2(1 -1)
2(1 -1)
2(1 -1)
2(1 -1)
2(1 -1)
2(1 -1)
2(1 -1)
2(1 -1)
2(1 -1)
2(1 -1)
2(1 -1)
2(1 -1)
2(1 -1)
2(1 -1)
2(1 -1)
2(1 -1)
2(1 -1)
2(1 -1)
2(1 -1)
2(1 -1)
2(1 -1)
2(1 -1)
2(1 -1)
2(1 -1)
2(1 -1)
)

// edgeNormals

48
(
2(0 1)
2(0 2)
2(3 4)
2(3 5)
2(4 6)
2(7 8)
2(7 9)
2(8 10)
2(11 12)
2(11 13)
2(12 14)
2(1 15)
2(16 17)
2(18 19)
2(20 21)
2(22 23)
2(24 25)
2(26 27)
2(28 29)
2(30 31)
2(32 33)
2(32 34)
2(35 36)
2(35 37)
2(36 38)
2(39 40)
2(39 41)
2(40 42)
2(43 44)
2(43 45)
2(44 46)
2(33 47)
2(48 49)
2(50 51)
2(52 53)
2(54 55)
2(56 57)
2(58 59)
2(60 61)
2(62 63)
2(16 30)
2(18 20)
2(22 24)
2(26 28)
2(56 53)
2(55 58)
2(49 60)
2(51 62)
)

// featurePointNormals

32
(
3(0 1 2)
3(0 2 4)
3(0 1 5)
3(3 4 5)
3(4 6 8)
3(7 8 9)
3(8 10 12)
3(11 12 13)
3(32 33 34)
3(32 33 37)
3(32 34 36)
3(35 36 37)
3(36 38 40)
3(39 40 41)
3(40 42 44)
3(43 44 45)
3(16 17 28)
3(16 17 20)
3(18 19 30)
3(18 19 22)
3(20 21 24)
3(22 23 26)
3(24 25 28)
3(26 27 30)
3(48 49 55)
3(48 49 51)
3(50 51 53)
3(52 53 55)
3(56 57 62)
3(56 57 58)
3(58 59 60)
3(60 61 62)
)

// featurePointEdges

32
(
3(0 10 1)
3(2 4 1)
3(3 11 0)
3(2 6 3)
3(5 7 4)
3(5 9 6)
3(8 10 7)
3(8 11 9)
3(20 30 21)
3(23 31 20)
3(22 24 21)
3(22 26 23)
3(25 27 24)
3(25 29 26)
3(28 30 27)
3(28 31 29)
3(40 18 12)
3(41 14 12)
3(13 19 40)
3(41 15 13)
3(42 16 14)
3(42 17 15)
3(43 18 16)
3(43 19 17)
3(35 45 32)
3(33 46 32)
3(34 47 33)
3(35 44 34)
3(44 39 36)
3(45 37 36)
3(46 38 37)
3(47 39 38)
)

// regionEdges
0()


// ************************************************************************* //
