/*--------------------------------*- C++ -*----------------------------------*\
  =========                 |
  \\      /  F ield         | OpenFOAM: The Open Source CFD Toolbox
   \\    /   O peration     | Website:  https://openfoam.org
    \\  /    A nd           | Version:  9
     \\/     M anipulation  |
\*---------------------------------------------------------------------------*/
FoamFile
{
    format      ascii;
    class       extendedFeatureEdgeMesh;
    location    "constant/extendedFeatureEdgeMesh";
    object      drafttube.extendedFeatureEdgeMesh;
}
// * * * * * * * * * * * * * * * * * * * * * * * * * * * * * * * * * * * * * //

// points

352
(
(340.0209 330.14789 528.64929)
(345.71179 330.14789 533.0437)
(346.0806 330.14789 531.36938)
(340.28391 330.14789 527.03009)
(333.75089 330.14789 525.13037)
(333.92871 330.14789 523.55988)
(327.03531 330.14789 522.56189)
(327.14429 330.14789 521.02948)
(320.01721 330.14789 520.9986)
(320.06891 330.14789 519.4903)
(312.84641 330.14789 520.47369)
(312.84641 330.14789 518.97369)
(305.67551 330.14789 520.9986)
(305.6239 330.14789 519.4903)
(298.6575 330.14789 522.56189)
(298.54849 330.14789 521.02948)
(291.94189 330.14789 525.13037)
(291.7641 330.14789 523.55988)
(285.67181 330.14789 528.64929)
(285.40891 330.14789 527.03009)
(279.9809 330.14789 533.0437)
(279.61221 330.14789 531.36938)
(274.99051 330.14789 538.21979)
(274.4921 330.14789 536.4895)
(270.80688 330.14789 544.06738)
(270.1528 330.14789 542.28619)
(267.51929 330.14789 550.46179)
(266.68259 330.14789 548.64142)
(265.19781 330.14789 557.26678)
(264.1521 330.14789 555.42578)
(263.89182 330.14789 564.33722)
(262.61292 330.14789 562.50122)
(263.62921 330.14789 571.5224)
(262.09641 330.14789 569.72369)
(264.41559 330.14789 578.66931)
(262.61292 330.14789 576.94623)
(266.23419 330.14789 585.62561)
(264.1521 330.14789 584.02161)
(269.0463 330.14789 592.24292)
(266.68259 330.14789 590.80603)
(272.7919 330.14789 598.38031)
(270.1528 330.14789 597.16119)
(277.39111 330.14789 603.90692)
(274.4921 330.14789 602.95789)
(282.74609 330.14789 608.7049)
(279.61221 330.14789 608.078)
(288.74261 330.14789 612.67218)
(285.40891 330.14789 612.4173)
(295.25281 330.14789 615.724)
(291.7641 330.14789 615.88751)
(302.138 330.14789 617.79547)
(298.54849 330.14789 618.41803)
(309.2514 330.14789 618.84229)
(305.6239 330.14789 619.95721)
(312.84641 330.14789 618.97369)
(312.84641 330.14789 620.47369)
(316.44141 330.14789 618.84229)
(320.06891 330.14789 619.95721)
(323.55481 330.14789 617.79547)
(327.14429 330.14789 618.41803)
(330.44 330.14789 615.724)
(333.92871 330.14789 615.88751)
(336.9502 330.14789 612.67218)
(340.28391 330.14789 612.4173)
(342.94669 330.14789 608.7049)
(346.0806 330.14789 608.078)
(348.30161 330.14789 603.90692)
(351.20071 330.14789 602.95789)
(352.90091 330.14789 598.38031)
(355.54001 330.14789 597.16119)
(356.64651 330.14789 592.24292)
(359.01019 330.14789 590.80603)
(359.4585 330.14789 585.62561)
(361.54071 330.14789 584.02161)
(361.2771 330.14789 578.66931)
(363.0798 330.14789 576.94623)
(362.06351 330.14789 571.5224)
(363.59641 330.14789 569.72369)
(361.8009 330.14789 564.33722)
(363.0798 330.14789 562.50122)
(360.495 330.14789 557.26678)
(361.54071 330.14789 555.42578)
(358.1734 330.14789 550.46179)
(359.01019 330.14789 548.64142)
(354.8858 330.14789 544.06738)
(355.54001 330.14789 542.28619)
(350.7023 330.14789 538.21979)
(351.20071 330.14789 536.4895)
(309.2514 80.147911 618.84229)
(312.84641 80.147911 618.97369)
(312.84641 80.147911 620.47369)
(305.6239 80.147911 619.95721)
(302.138 80.147911 617.79547)
(298.54849 80.147911 618.41803)
(295.25281 80.147911 615.724)
(291.7641 80.147911 615.88751)
(288.74261 80.147911 612.67218)
(285.40891 80.147911 612.4173)
(282.74609 80.147911 608.7049)
(279.61221 80.147911 608.078)
(277.39111 80.147911 603.90692)
(274.4921 80.147911 602.95789)
(272.7919 80.147911 598.38031)
(270.1528 80.147911 597.16119)
(269.0463 80.147911 592.24292)
(266.68259 80.147911 590.80603)
(266.23419 80.147911 585.62561)
(264.1521 80.147911 584.02161)
(264.41559 80.147911 578.66931)
(262.61292 80.147911 576.94623)
(263.62921 80.147911 571.5224)
(262.09641 80.147911 569.72369)
(263.89182 80.147911 564.33722)
(262.61292 80.147911 562.50122)
(265.19781 80.147911 557.26678)
(264.1521 80.147911 555.42578)
(267.51929 80.147911 550.46179)
(266.68259 80.147911 548.64142)
(270.80688 80.147911 544.06738)
(270.1528 80.147911 542.28619)
(274.99051 80.147911 538.21979)
(274.4921 80.147911 536.4895)
(279.9809 80.147911 533.0437)
(279.61221 80.147911 531.36938)
(285.67181 80.147911 528.64929)
(285.40891 80.147911 527.03009)
(291.94189 80.147911 525.13037)
(291.7641 80.147911 523.55988)
(298.6575 80.147911 522.56189)
(298.54849 80.147911 521.02948)
(305.67551 80.147911 520.9986)
(305.6239 80.147911 519.4903)
(312.84641 80.147911 520.47369)
(312.84641 80.147911 518.97369)
(320.01721 80.147911 520.9986)
(320.06891 80.147911 519.4903)
(327.03531 80.147911 522.56189)
(327.14429 80.147911 521.02948)
(333.75089 80.147911 525.13037)
(333.92871 80.147911 523.55988)
(340.0209 80.147911 528.64929)
(340.28391 80.147911 527.03009)
(345.71179 80.147911 533.0437)
(346.0806 80.147911 531.36938)
(350.7023 80.147911 538.21979)
(351.20071 80.147911 536.4895)
(354.8858 80.147911 544.06738)
(355.54001 80.147911 542.28619)
(358.1734 80.147911 550.46179)
(359.01019 80.147911 548.64142)
(360.495 80.147911 557.26678)
(361.54071 80.147911 555.42578)
(361.8009 80.147911 564.33722)
(363.0798 80.147911 562.50122)
(362.06351 80.147911 571.5224)
(363.59641 80.147911 569.72369)
(361.2771 80.147911 578.66931)
(363.0798 80.147911 576.94623)
(359.4585 80.147911 585.62561)
(361.54071 80.147911 584.02161)
(356.64651 80.147911 592.24292)
(359.01019 80.147911 590.80603)
(352.90091 80.147911 598.38031)
(355.54001 80.147911 597.16119)
(348.30161 80.147911 603.90692)
(351.20071 80.147911 602.95789)
(342.94669 80.147911 608.7049)
(346.0806 80.147911 608.078)
(336.9502 80.147911 612.67218)
(340.28391 80.147911 612.4173)
(330.44 80.147911 615.724)
(333.92871 80.147911 615.88751)
(323.55481 80.147911 617.79547)
(327.14429 80.147911 618.41803)
(316.44141 80.147911 618.84229)
(320.06891 80.147911 619.95721)
(340.0209 740.14789 528.64929)
(345.71179 740.14789 533.0437)
(346.0806 740.14789 531.36938)
(340.28391 740.14789 527.03009)
(333.75089 740.14789 525.13037)
(333.92871 740.14789 523.55988)
(327.03531 740.14789 522.56189)
(327.14429 740.14789 521.02948)
(320.01721 740.14789 520.9986)
(320.06891 740.14789 519.4903)
(312.84641 740.14789 520.47369)
(312.84641 740.14789 518.97369)
(305.67551 740.14789 520.9986)
(305.6239 740.14789 519.4903)
(298.6575 740.14789 522.56189)
(298.54849 740.14789 521.02948)
(291.94189 740.14789 525.13037)
(291.7641 740.14789 523.55988)
(285.67181 740.14789 528.64929)
(285.40891 740.14789 527.03009)
(279.9809 740.14789 533.0437)
(279.61221 740.14789 531.36938)
(274.99051 740.14789 538.21979)
(274.4921 740.14789 536.4895)
(270.80688 740.14789 544.06738)
(270.1528 740.14789 542.28619)
(267.51929 740.14789 550.46179)
(266.68259 740.14789 548.64142)
(265.19781 740.14789 557.26678)
(264.1521 740.14789 555.42578)
(263.89182 740.14789 564.33722)
(262.61292 740.14789 562.50122)
(263.62921 740.14789 571.5224)
(262.09641 740.14789 569.72369)
(264.41559 740.14789 578.66931)
(262.61292 740.14789 576.94623)
(266.23419 740.14789 585.62561)
(264.1521 740.14789 584.02161)
(269.0463 740.14789 592.24292)
(266.68259 740.14789 590.80603)
(272.7919 740.14789 598.38031)
(270.1528 740.14789 597.16119)
(277.39111 740.14789 603.90692)
(274.4921 740.14789 602.95789)
(282.74609 740.14789 608.7049)
(279.61221 740.14789 608.078)
(288.74261 740.14789 612.67218)
(285.40891 740.14789 612.4173)
(295.25281 740.14789 615.724)
(291.7641 740.14789 615.88751)
(302.138 740.14789 617.79547)
(298.54849 740.14789 618.41803)
(309.2514 740.14789 618.84229)
(305.6239 740.14789 619.95721)
(312.84641 740.14789 618.97369)
(312.84641 740.14789 620.47369)
(316.44141 740.14789 618.84229)
(320.06891 740.14789 619.95721)
(323.55481 740.14789 617.79547)
(327.14429 740.14789 618.41803)
(330.44 740.14789 615.724)
(333.92871 740.14789 615.88751)
(336.9502 740.14789 612.67218)
(340.28391 740.14789 612.4173)
(342.94669 740.14789 608.7049)
(346.0806 740.14789 608.078)
(348.30161 740.14789 603.90692)
(351.20071 740.14789 602.95789)
(352.90091 740.14789 598.38031)
(355.54001 740.14789 597.16119)
(356.64651 740.14789 592.24292)
(359.01019 740.14789 590.80603)
(359.4585 740.14789 585.62561)
(361.54071 740.14789 584.02161)
(361.2771 740.14789 578.66931)
(363.0798 740.14789 576.94623)
(362.06351 740.14789 571.5224)
(363.59641 740.14789 569.72369)
(361.8009 740.14789 564.33722)
(363.0798 740.14789 562.50122)
(360.495 740.14789 557.26678)
(361.54071 740.14789 555.42578)
(358.1734 740.14789 550.46179)
(359.01019 740.14789 548.64142)
(354.8858 740.14789 544.06738)
(355.54001 740.14789 542.28619)
(350.7023 740.14789 538.21979)
(351.20071 740.14789 536.4895)
(309.2514 490.14789 618.84229)
(312.84641 490.14789 618.97369)
(312.84641 490.14789 620.47369)
(305.6239 490.14789 619.95721)
(302.138 490.14789 617.79547)
(298.54849 490.14789 618.41803)
(295.25281 490.14789 615.724)
(291.7641 490.14789 615.88751)
(288.74261 490.14789 612.67218)
(285.40891 490.14789 612.4173)
(282.74609 490.14789 608.7049)
(279.61221 490.14789 608.078)
(277.39111 490.14789 603.90692)
(274.4921 490.14789 602.95789)
(272.7919 490.14789 598.38031)
(270.1528 490.14789 597.16119)
(269.0463 490.14789 592.24292)
(266.68259 490.14789 590.80603)
(266.23419 490.14789 585.62561)
(264.1521 490.14789 584.02161)
(264.41559 490.14789 578.66931)
(262.61292 490.14789 576.94623)
(263.62921 490.14789 571.5224)
(262.09641 490.14789 569.72369)
(263.89182 490.14789 564.33722)
(262.61292 490.14789 562.50122)
(265.19781 490.14789 557.26678)
(264.1521 490.14789 555.42578)
(267.51929 490.14789 550.46179)
(266.68259 490.14789 548.64142)
(270.80688 490.14789 544.06738)
(270.1528 490.14789 542.28619)
(274.99051 490.14789 538.21979)
(274.4921 490.14789 536.4895)
(279.9809 490.14789 533.0437)
(279.61221 490.14789 531.36938)
(285.67181 490.14789 528.64929)
(285.40891 490.14789 527.03009)
(291.94189 490.14789 525.13037)
(291.7641 490.14789 523.55988)
(298.6575 490.14789 522.56189)
(298.54849 490.14789 521.02948)
(305.67551 490.14789 520.9986)
(305.6239 490.14789 519.4903)
(312.84641 490.14789 520.47369)
(312.84641 490.14789 518.97369)
(320.01721 490.14789 520.9986)
(320.06891 490.14789 519.4903)
(327.03531 490.14789 522.56189)
(327.14429 490.14789 521.02948)
(333.75089 490.14789 525.13037)
(333.92871 490.14789 523.55988)
(340.0209 490.14789 528.64929)
(340.28391 490.14789 527.03009)
(345.71179 490.14789 533.0437)
(346.0806 490.14789 531.36938)
(350.7023 490.14789 538.21979)
(351.20071 490.14789 536.4895)
(354.8858 490.14789 544.06738)
(355.54001 490.14789 542.28619)
(358.1734 490.14789 550.46179)
(359.01019 490.14789 548.64142)
(360.495 490.14789 557.26678)
(361.54071 490.14789 555.42578)
(361.8009 490.14789 564.33722)
(363.0798 490.14789 562.50122)
(362.06351 490.14789 571.5224)
(363.59641 490.14789 569.72369)
(361.2771 490.14789 578.66931)
(363.0798 490.14789 576.94623)
(359.4585 490.14789 585.62561)
(361.54071 490.14789 584.02161)
(356.64651 490.14789 592.24292)
(359.01019 490.14789 590.80603)
(352.90091 490.14789 598.38031)
(355.54001 490.14789 597.16119)
(348.30161 490.14789 603.90692)
(351.20071 490.14789 602.95789)
(342.94669 490.14789 608.7049)
(346.0806 490.14789 608.078)
(336.9502 490.14789 612.67218)
(340.28391 490.14789 612.4173)
(330.44 490.14789 615.724)
(333.92871 490.14789 615.88751)
(323.55481 490.14789 617.79547)
(327.14429 490.14789 618.41803)
(316.44141 490.14789 618.84229)
(320.06891 490.14789 619.95721)
)

// edges

352
(
(0 1)
(2 3)
(4 0)
(3 5)
(6 4)
(5 7)
(8 6)
(7 9)
(10 8)
(9 11)
(12 10)
(11 13)
(14 12)
(13 15)
(16 14)
(15 17)
(18 16)
(17 19)
(20 18)
(19 21)
(22 20)
(21 23)
(24 22)
(23 25)
(26 24)
(25 27)
(28 26)
(27 29)
(30 28)
(29 31)
(32 30)
(31 33)
(34 32)
(33 35)
(36 34)
(35 37)
(38 36)
(37 39)
(40 38)
(39 41)
(42 40)
(41 43)
(44 42)
(43 45)
(46 44)
(45 47)
(48 46)
(47 49)
(50 48)
(49 51)
(52 50)
(51 53)
(54 52)
(53 55)
(56 54)
(55 57)
(58 56)
(57 59)
(60 58)
(59 61)
(62 60)
(61 63)
(64 62)
(63 65)
(66 64)
(65 67)
(68 66)
(67 69)
(70 68)
(69 71)
(72 70)
(71 73)
(74 72)
(73 75)
(76 74)
(75 77)
(78 76)
(77 79)
(80 78)
(79 81)
(82 80)
(81 83)
(84 82)
(83 85)
(86 84)
(85 87)
(1 86)
(87 2)
(88 89)
(90 91)
(92 88)
(91 93)
(94 92)
(93 95)
(96 94)
(95 97)
(98 96)
(97 99)
(100 98)
(99 101)
(102 100)
(101 103)
(104 102)
(103 105)
(106 104)
(105 107)
(108 106)
(107 109)
(110 108)
(109 111)
(112 110)
(111 113)
(114 112)
(113 115)
(116 114)
(115 117)
(118 116)
(117 119)
(120 118)
(119 121)
(122 120)
(121 123)
(124 122)
(123 125)
(126 124)
(125 127)
(128 126)
(127 129)
(130 128)
(129 131)
(132 130)
(131 133)
(134 132)
(133 135)
(136 134)
(135 137)
(138 136)
(137 139)
(140 138)
(139 141)
(142 140)
(141 143)
(144 142)
(143 145)
(146 144)
(145 147)
(148 146)
(147 149)
(150 148)
(149 151)
(152 150)
(151 153)
(154 152)
(153 155)
(156 154)
(155 157)
(158 156)
(157 159)
(160 158)
(159 161)
(162 160)
(161 163)
(164 162)
(163 165)
(166 164)
(165 167)
(168 166)
(167 169)
(170 168)
(169 171)
(172 170)
(171 173)
(174 172)
(173 175)
(89 174)
(175 90)
(176 177)
(178 179)
(180 176)
(179 181)
(182 180)
(181 183)
(184 182)
(183 185)
(186 184)
(185 187)
(188 186)
(187 189)
(190 188)
(189 191)
(192 190)
(191 193)
(194 192)
(193 195)
(196 194)
(195 197)
(198 196)
(197 199)
(200 198)
(199 201)
(202 200)
(201 203)
(204 202)
(203 205)
(206 204)
(205 207)
(208 206)
(207 209)
(210 208)
(209 211)
(212 210)
(211 213)
(214 212)
(213 215)
(216 214)
(215 217)
(218 216)
(217 219)
(220 218)
(219 221)
(222 220)
(221 223)
(224 222)
(223 225)
(226 224)
(225 227)
(228 226)
(227 229)
(230 228)
(229 231)
(232 230)
(231 233)
(234 232)
(233 235)
(236 234)
(235 237)
(238 236)
(237 239)
(240 238)
(239 241)
(242 240)
(241 243)
(244 242)
(243 245)
(246 244)
(245 247)
(248 246)
(247 249)
(250 248)
(249 251)
(252 250)
(251 253)
(254 252)
(253 255)
(256 254)
(255 257)
(258 256)
(257 259)
(260 258)
(259 261)
(262 260)
(261 263)
(177 262)
(263 178)
(264 265)
(266 267)
(268 264)
(267 269)
(270 268)
(269 271)
(272 270)
(271 273)
(274 272)
(273 275)
(276 274)
(275 277)
(278 276)
(277 279)
(280 278)
(279 281)
(282 280)
(281 283)
(284 282)
(283 285)
(286 284)
(285 287)
(288 286)
(287 289)
(290 288)
(289 291)
(292 290)
(291 293)
(294 292)
(293 295)
(296 294)
(295 297)
(298 296)
(297 299)
(300 298)
(299 301)
(302 300)
(301 303)
(304 302)
(303 305)
(306 304)
(305 307)
(308 306)
(307 309)
(310 308)
(309 311)
(312 310)
(311 313)
(314 312)
(313 315)
(316 314)
(315 317)
(318 316)
(317 319)
(320 318)
(319 321)
(322 320)
(321 323)
(324 322)
(323 325)
(326 324)
(325 327)
(328 326)
(327 329)
(330 328)
(329 331)
(332 330)
(331 333)
(334 332)
(333 335)
(336 334)
(335 337)
(338 336)
(337 339)
(340 338)
(339 341)
(342 340)
(341 343)
(344 342)
(343 345)
(346 344)
(345 347)
(348 346)
(347 349)
(350 348)
(349 351)
(265 350)
(351 266)
)

// concaveStart mixedStart nonFeatureStart
0 0 0
// internalStart flatStart openStart multipleStart
352 352 352 352
// normals

704
(
(0 1 0)
(-0.61117796 0 0.79149321)
(-0 1 0)
(0.59927282 0 -0.80054487)
(0 1 0)
(-0.48941948 0 0.87204849)
(-0 1 0)
(0.47925072 0 -0.87767804)
(0 1 0)
(-0.35722982 0 0.93401652)
(-0 1 0)
(0.34945645 0 -0.93695261)
(0 1 0)
(-0.21742298 0 0.97607748)
(-0 1 0)
(0.21256927 0 -0.977146)
(0 1 0)
(-0.073004573 0 0.99733161)
(0 1 0)
(0.071344391 0 -0.99745174)
(0 1 0)
(0.073003646 0 0.99733167)
(0 1 0)
(-0.071344391 0 -0.99745174)
(0 1 0)
(0.21742568 0 0.97607688)
(0 1 0)
(-0.2125684 0 -0.97714619)
(0 1 0)
(0.35722841 0 0.93401706)
(0 1 0)
(-0.34945783 0 -0.93695209)
(0 1 0)
(0.48941585 0 0.87205053)
(0 1 0)
(-0.47925072 0 -0.87767804)
(0 1 0)
(0.61117591 0 0.79149479)
(0 1 0)
(-0.59927282 0 -0.80054487)
(0 1 0)
(0.71990262 0 0.69407509)
(0 1 0)
(-0.70710678 0 -0.70710678)
(0 1 0)
(0.81328786 0 0.58186155)
(0 1 0)
(-0.80054487 0 -0.59927282)
(0 1 0)
(0.88934185 0 0.4572429)
(0 1 0)
(-0.87767901 0 -0.47924895)
(0 1 0)
(0.9464427 0 0.32287182)
(0 1 0)
(-0.93694744 0 -0.34947031)
(0 1 0)
(0.98336507 0 0.18164011)
(0 1 0)
(-0.97714638 0 -0.21256752)
(0 1 0)
(0.99933279 0 0.036523584)
(0 1 0)
(-0.99745262 0 -0.071332112)
(0 1 -0)
(0.99400108 0 -0.10937025)
(0 1 0)
(-0.99745266 0 0.071331512)
(0 1 -0)
(0.96748408 0 -0.25293191)
(0 1 0)
(-0.977146 0 0.21256927)
(0 1 -0)
(0.9203436 0 -0.3911108)
(0 1 0)
(-0.93694847 0 0.34946755)
(0 1 -0)
(0.85359245 0 -0.52094139)
(0 1 0)
(-0.87767707 0 0.4792525)
(0 1 -0)
(0.76865181 0 -0.63966741)
(0 1 0)
(-0.80054487 0 0.59927282)
(0 1 -0)
(0.66731033 0 -0.74477978)
(0 1 0)
(-0.70710678 0 0.70710678)
(0 1 -0)
(0.5517701 0 -0.83399626)
(0 1 0)
(-0.59927282 0 0.80054487)
(0 1 -0)
(0.4244528 0 -0.90545007)
(0 1 0)
(-0.47925072 0 0.87767804)
(0 1 -0)
(0.28810245 0 -0.95759959)
(0 1 0)
(-0.34947263 0 0.93694657)
(0 1 -0)
(0.14559272 0 -0.98934461)
(0 1 0)
(-0.2125684 0 0.97714619)
(0 1 -0)
(0.036528775 0 -0.9993326)
(0 1 -0)
(-0.071327619 0 0.99745294)
(-0 1 0)
(-0.036528775 -0 -0.9993326)
(0 1 -0)
(0.071327619 -0 0.99745294)
(-0 1 0)
(-0.14559272 -0 -0.98934461)
(0 1 -0)
(0.21256927 -0 0.977146)
(-0 1 0)
(-0.28810245 -0 -0.95759959)
(0 1 -0)
(0.34947125 -0 0.93694709)
(-0 1 0)
(-0.4244528 -0 -0.90545007)
(-0 1 -0)
(0.47925072 -0 0.87767804)
(0 1 0)
(-0.55177205 -0 -0.83399497)
(-0 1 -0)
(0.59927282 -0 0.80054487)
(0 1 0)
(-0.66731455 -0 -0.744776)
(-0 1 -0)
(0.70710678 -0 0.70710678)
(0 1 0)
(-0.76864555 -0 -0.63967493)
(-0 1 -0)
(0.80054487 -0 0.59927282)
(0 1 0)
(-0.85359245 -0 -0.52094139)
(-0 1 -0)
(0.87767885 -0 0.47924925)
(0 1 0)
(-0.92034971 -0 -0.39109642)
(-0 1 -0)
(0.93694709 -0 0.34947125)
(0 1 0)
(-0.96748408 -0 -0.25293191)
(-0 1 0)
(0.97714863 -0 0.2125572)
(0 1 0)
(-0.99400062 -0 -0.10937445)
(-0 1 0)
(0.99745176 -0 0.071344092)
(0 1 0)
(-0.99933279 0 0.036523584)
(-0 1 0)
(0.99745172 0 -0.071344691)
(0 1 0)
(-0.98336735 0 0.1816278)
(-0 1 0)
(0.97714901 0 -0.21255545)
(0 1 0)
(-0.94643751 0 0.32288703)
(-0 1 0)
(0.93694606 0 -0.34947401)
(0 1 0)
(-0.88934185 0 0.4572429)
(-0 1 0)
(0.87768078 0 -0.4792457)
(0 1 0)
(-0.81329589 0 0.58185032)
(-0 1 0)
(0.80054487 0 -0.59927282)
(0 1 0)
(-0.71989413 0 0.69408388)
(-0 1 0)
(0.70710678 0 -0.70710678)
(-0 -1 0)
(0.036528775 0 -0.9993326)
(0 -1 0)
(-0.071327619 0 0.99745294)
(-0 -1 0)
(0.14559272 0 -0.98934461)
(0 -1 0)
(-0.2125684 0 0.97714619)
(-0 -1 0)
(0.28810245 0 -0.95759959)
(0 -1 0)
(-0.34947263 0 0.93694657)
(-0 -1 0)
(0.4244528 0 -0.90545007)
(-0 -1 0)
(-0.47925072 0 0.87767804)
(0 -1 0)
(0.5517701 0 -0.83399626)
(-0 -1 0)
(-0.59927282 0 0.80054487)
(0 -1 0)
(0.66731033 0 -0.74477978)
(-0 -1 0)
(-0.70710678 0 0.70710678)
(0 -1 0)
(0.76865181 0 -0.63966741)
(-0 -1 0)
(-0.80054487 0 0.59927282)
(0 -1 0)
(0.85359245 0 -0.52094139)
(-0 -1 0)
(-0.87767707 0 0.4792525)
(0 -1 0)
(0.9203436 0 -0.3911108)
(-0 -1 0)
(-0.93694847 0 0.34946755)
(0 -1 0)
(0.96748408 0 -0.25293191)
(-0 -1 0)
(-0.977146 0 0.21256927)
(0 -1 0)
(0.99400108 0 -0.10937025)
(-0 -1 0)
(-0.99745266 0 0.071331512)
(0 -1 -0)
(0.99933279 0 0.036523584)
(-0 -1 0)
(-0.99745262 0 -0.071332112)
(0 -1 -0)
(0.98336507 0 0.18164011)
(-0 -1 0)
(-0.97714638 0 -0.21256752)
(0 -1 -0)
(0.9464427 0 0.32287182)
(-0 -1 0)
(-0.93694744 0 -0.34947031)
(0 -1 -0)
(0.88934185 0 0.4572429)
(-0 -1 0)
(-0.87767901 0 -0.47924895)
(0 -1 -0)
(0.81328786 0 0.58186155)
(-0 -1 0)
(-0.80054487 0 -0.59927282)
(0 -1 -0)
(0.71990262 0 0.69407509)
(-0 -1 0)
(-0.70710678 0 -0.70710678)
(0 -1 -0)
(0.61117591 0 0.79149479)
(-0 -1 0)
(-0.59927282 0 -0.80054487)
(0 -1 -0)
(0.48941585 0 0.87205053)
(-0 -1 0)
(-0.47925072 0 -0.87767804)
(0 -1 -0)
(0.35722841 0 0.93401706)
(-0 -1 0)
(-0.34945783 0 -0.93695209)
(0 -1 -0)
(0.21742568 0 0.97607688)
(-0 -1 0)
(-0.2125684 0 -0.97714619)
(0 -1 -0)
(0.073003646 0 0.99733167)
(0 -1 -0)
(-0.071344391 0 -0.99745174)
(0 -1 0)
(-0.073004573 0 0.99733161)
(0 -1 -0)
(0.071344391 0 -0.99745174)
(0 -1 0)
(-0.21742298 0 0.97607748)
(0 -1 -0)
(0.21256927 0 -0.977146)
(0 -1 0)
(-0.35722982 0 0.93401652)
(0 -1 -0)
(0.34945645 0 -0.93695261)
(0 -1 0)
(-0.48941948 0 0.87204849)
(0 -1 -0)
(0.47925072 0 -0.87767804)
(0 -1 0)
(-0.61117796 0 0.79149321)
(0 -1 -0)
(0.59927282 0 -0.80054487)
(0 -1 0)
(-0.71989413 0 0.69408388)
(0 -1 -0)
(0.70710678 0 -0.70710678)
(0 -1 0)
(-0.81329589 0 0.58185032)
(0 -1 -0)
(0.80054487 0 -0.59927282)
(0 -1 0)
(-0.88934185 0 0.4572429)
(0 -1 -0)
(0.87768078 0 -0.4792457)
(0 -1 0)
(-0.94643751 0 0.32288703)
(0 -1 -0)
(0.93694606 0 -0.34947401)
(0 -1 0)
(-0.98336735 0 0.1816278)
(0 -1 -0)
(0.97714901 0 -0.21255545)
(0 -1 0)
(-0.99933279 0 0.036523584)
(0 -1 0)
(0.99745172 0 -0.071344691)
(0 -1 0)
(-0.99400062 -0 -0.10937445)
(0 -1 0)
(0.99745176 0 0.071344092)
(0 -1 0)
(-0.96748408 -0 -0.25293191)
(0 -1 0)
(0.97714863 0 0.2125572)
(0 -1 0)
(-0.92034971 -0 -0.39109642)
(0 -1 0)
(0.93694709 0 0.34947125)
(0 -1 0)
(-0.85359245 -0 -0.52094139)
(0 -1 0)
(0.87767885 0 0.47924925)
(0 -1 0)
(-0.76864555 -0 -0.63967493)
(0 -1 0)
(0.80054487 0 0.59927282)
(0 -1 0)
(-0.66731455 -0 -0.744776)
(0 -1 0)
(0.70710678 0 0.70710678)
(0 -1 0)
(-0.55177205 -0 -0.83399497)
(0 -1 0)
(0.59927282 0 0.80054487)
(0 -1 0)
(-0.4244528 -0 -0.90545007)
(0 -1 0)
(0.47925072 0 0.87767804)
(0 -1 0)
(-0.28810245 -0 -0.95759959)
(0 -1 0)
(0.34947125 0 0.93694709)
(0 -1 0)
(-0.14559272 -0 -0.98934461)
(0 -1 0)
(0.21256927 0 0.977146)
(0 -1 0)
(-0.036528775 -0 -0.9993326)
(0 -1 0)
(0.071327619 0 0.99745294)
(0 1 0)
(-0.61117796 0 0.79149321)
(-0 1 0)
(0.59927282 0 -0.80054487)
(0 1 0)
(-0.48941948 0 0.87204849)
(-0 1 0)
(0.47925072 0 -0.87767804)
(0 1 0)
(-0.35722982 0 0.93401652)
(-0 1 0)
(0.34945645 0 -0.93695261)
(0 1 0)
(-0.21742298 0 0.97607748)
(-0 1 0)
(0.21256927 0 -0.977146)
(0 1 0)
(-0.073004573 0 0.99733161)
(0 1 0)
(0.071344391 0 -0.99745174)
(0 1 0)
(0.073003646 0 0.99733167)
(0 1 0)
(-0.071344391 0 -0.99745174)
(0 1 0)
(0.21742568 0 0.97607688)
(0 1 0)
(-0.2125684 0 -0.97714619)
(0 1 0)
(0.35722841 0 0.93401706)
(0 1 0)
(-0.34945783 0 -0.93695209)
(0 1 0)
(0.48941585 0 0.87205053)
(0 1 0)
(-0.47925072 0 -0.87767804)
(0 1 0)
(0.61117591 0 0.79149479)
(0 1 0)
(-0.59927282 0 -0.80054487)
(0 1 0)
(0.71990262 0 0.69407509)
(0 1 0)
(-0.70710678 0 -0.70710678)
(0 1 0)
(0.81328786 0 0.58186155)
(0 1 0)
(-0.80054487 0 -0.59927282)
(0 1 0)
(0.88934185 0 0.4572429)
(0 1 0)
(-0.87767901 0 -0.47924895)
(0 1 0)
(0.9464427 0 0.32287182)
(0 1 0)
(-0.93694744 0 -0.34947031)
(0 1 0)
(0.98336507 0 0.18164011)
(0 1 0)
(-0.97714638 0 -0.21256752)
(0 1 0)
(0.99933279 0 0.036523584)
(0 1 0)
(-0.99745262 0 -0.071332112)
(0 1 -0)
(0.99400108 0 -0.10937025)
(0 1 0)
(-0.99745266 0 0.071331512)
(0 1 -0)
(0.96748408 0 -0.25293191)
(0 1 0)
(-0.977146 0 0.21256927)
(0 1 -0)
(0.9203436 0 -0.3911108)
(0 1 0)
(-0.93694847 0 0.34946755)
(0 1 -0)
(0.85359245 0 -0.52094139)
(0 1 0)
(-0.87767707 0 0.4792525)
(0 1 -0)
(0.76865181 0 -0.63966741)
(0 1 0)
(-0.80054487 0 0.59927282)
(0 1 -0)
(0.66731033 0 -0.74477978)
(0 1 0)
(-0.70710678 0 0.70710678)
(0 1 -0)
(0.5517701 0 -0.83399626)
(0 1 0)
(-0.59927282 0 0.80054487)
(0 1 -0)
(0.4244528 0 -0.90545007)
(0 1 0)
(-0.47925072 0 0.87767804)
(0 1 -0)
(0.28810245 0 -0.95759959)
(0 1 0)
(-0.34947263 0 0.93694657)
(0 1 -0)
(0.14559272 0 -0.98934461)
(0 1 0)
(-0.2125684 0 0.97714619)
(0 1 -0)
(0.036528775 0 -0.9993326)
(0 1 -0)
(-0.071327619 0 0.99745294)
(-0 1 0)
(-0.036528775 -0 -0.9993326)
(0 1 -0)
(0.071327619 -0 0.99745294)
(-0 1 0)
(-0.14559272 -0 -0.98934461)
(0 1 -0)
(0.21256927 -0 0.977146)
(-0 1 0)
(-0.28810245 -0 -0.95759959)
(0 1 -0)
(0.34947125 -0 0.93694709)
(-0 1 0)
(-0.4244528 -0 -0.90545007)
(-0 1 -0)
(0.47925072 -0 0.87767804)
(0 1 0)
(-0.55177205 -0 -0.83399497)
(-0 1 -0)
(0.59927282 -0 0.80054487)
(0 1 0)
(-0.66731455 -0 -0.744776)
(-0 1 -0)
(0.70710678 -0 0.70710678)
(0 1 0)
(-0.76864555 -0 -0.63967493)
(-0 1 -0)
(0.80054487 -0 0.59927282)
(0 1 0)
(-0.85359245 -0 -0.52094139)
(-0 1 -0)
(0.87767885 -0 0.47924925)
(0 1 0)
(-0.92034971 -0 -0.39109642)
(-0 1 -0)
(0.93694709 -0 0.34947125)
(0 1 0)
(-0.96748408 -0 -0.25293191)
(-0 1 0)
(0.97714863 -0 0.2125572)
(0 1 0)
(-0.99400062 -0 -0.10937445)
(-0 1 0)
(0.99745176 -0 0.071344092)
(0 1 0)
(-0.99933279 0 0.036523584)
(-0 1 0)
(0.99745172 0 -0.071344691)
(0 1 0)
(-0.98336735 0 0.1816278)
(-0 1 0)
(0.97714901 0 -0.21255545)
(0 1 0)
(-0.94643751 0 0.32288703)
(-0 1 0)
(0.93694606 0 -0.34947401)
(0 1 0)
(-0.88934185 0 0.4572429)
(-0 1 0)
(0.87768078 0 -0.4792457)
(0 1 0)
(-0.81329589 0 0.58185032)
(-0 1 0)
(0.80054487 0 -0.59927282)
(0 1 0)
(-0.71989413 0 0.69408388)
(-0 1 0)
(0.70710678 0 -0.70710678)
(-0 -1 0)
(0.036528775 0 -0.9993326)
(0 -1 0)
(-0.071327619 0 0.99745294)
(-0 -1 0)
(0.14559272 0 -0.98934461)
(0 -1 0)
(-0.2125684 0 0.97714619)
(-0 -1 0)
(0.28810245 0 -0.95759959)
(0 -1 0)
(-0.34947263 0 0.93694657)
(-0 -1 0)
(0.4244528 0 -0.90545007)
(-0 -1 0)
(-0.47925072 0 0.87767804)
(0 -1 0)
(0.5517701 0 -0.83399626)
(-0 -1 0)
(-0.59927282 0 0.80054487)
(0 -1 0)
(0.66731033 0 -0.74477978)
(-0 -1 0)
(-0.70710678 0 0.70710678)
(0 -1 0)
(0.76865181 0 -0.63966741)
(-0 -1 0)
(-0.80054487 0 0.59927282)
(0 -1 0)
(0.85359245 0 -0.52094139)
(-0 -1 0)
(-0.87767707 0 0.4792525)
(0 -1 0)
(0.9203436 0 -0.3911108)
(-0 -1 0)
(-0.93694847 0 0.34946755)
(0 -1 0)
(0.96748408 0 -0.25293191)
(-0 -1 0)
(-0.977146 0 0.21256927)
(0 -1 0)
(0.99400108 0 -0.10937025)
(-0 -1 0)
(-0.99745266 0 0.071331512)
(0 -1 -0)
(0.99933279 0 0.036523584)
(-0 -1 0)
(-0.99745262 0 -0.071332112)
(0 -1 -0)
(0.98336507 0 0.18164011)
(-0 -1 0)
(-0.97714638 0 -0.21256752)
(0 -1 -0)
(0.9464427 0 0.32287182)
(-0 -1 0)
(-0.93694744 0 -0.34947031)
(0 -1 -0)
(0.88934185 0 0.4572429)
(-0 -1 0)
(-0.87767901 0 -0.47924895)
(0 -1 -0)
(0.81328786 0 0.58186155)
(-0 -1 0)
(-0.80054487 0 -0.59927282)
(0 -1 -0)
(0.71990262 0 0.69407509)
(-0 -1 0)
(-0.70710678 0 -0.70710678)
(0 -1 -0)
(0.61117591 0 0.79149479)
(-0 -1 0)
(-0.59927282 0 -0.80054487)
(0 -1 -0)
(0.48941585 0 0.87205053)
(-0 -1 0)
(-0.47925072 0 -0.87767804)
(0 -1 -0)
(0.35722841 0 0.93401706)
(-0 -1 0)
(-0.34945783 0 -0.93695209)
(0 -1 -0)
(0.21742568 0 0.97607688)
(-0 -1 0)
(-0.2125684 0 -0.97714619)
(0 -1 -0)
(0.073003646 0 0.99733167)
(0 -1 -0)
(-0.071344391 0 -0.99745174)
(0 -1 0)
(-0.073004573 0 0.99733161)
(0 -1 -0)
(0.071344391 0 -0.99745174)
(0 -1 0)
(-0.21742298 0 0.97607748)
(0 -1 -0)
(0.21256927 0 -0.977146)
(0 -1 0)
(-0.35722982 0 0.93401652)
(0 -1 -0)
(0.34945645 0 -0.93695261)
(0 -1 0)
(-0.48941948 0 0.87204849)
(0 -1 -0)
(0.47925072 0 -0.87767804)
(0 -1 0)
(-0.61117796 0 0.79149321)
(0 -1 -0)
(0.59927282 0 -0.80054487)
(0 -1 0)
(-0.71989413 0 0.69408388)
(0 -1 -0)
(0.70710678 0 -0.70710678)
(0 -1 0)
(-0.81329589 0 0.58185032)
(0 -1 -0)
(0.80054487 0 -0.59927282)
(0 -1 0)
(-0.88934185 0 0.4572429)
(0 -1 -0)
(0.87768078 0 -0.4792457)
(0 -1 0)
(-0.94643751 0 0.32288703)
(0 -1 -0)
(0.93694606 0 -0.34947401)
(0 -1 0)
(-0.98336735 0 0.1816278)
(0 -1 -0)
(0.97714901 0 -0.21255545)
(0 -1 0)
(-0.99933279 0 0.036523584)
(0 -1 0)
(0.99745172 0 -0.071344691)
(0 -1 0)
(-0.99400062 -0 -0.10937445)
(0 -1 0)
(0.99745176 0 0.071344092)
(0 -1 0)
(-0.96748408 -0 -0.25293191)
(0 -1 0)
(0.97714863 0 0.2125572)
(0 -1 0)
(-0.92034971 -0 -0.39109642)
(0 -1 0)
(0.93694709 0 0.34947125)
(0 -1 0)
(-0.85359245 -0 -0.52094139)
(0 -1 0)
(0.87767885 0 0.47924925)
(0 -1 0)
(-0.76864555 -0 -0.63967493)
(0 -1 0)
(0.80054487 0 0.59927282)
(0 -1 0)
(-0.66731455 -0 -0.744776)
(0 -1 0)
(0.70710678 0 0.70710678)
(0 -1 0)
(-0.55177205 -0 -0.83399497)
(0 -1 0)
(0.59927282 0 0.80054487)
(0 -1 0)
(-0.4244528 -0 -0.90545007)
(0 -1 0)
(0.47925072 0 0.87767804)
(0 -1 0)
(-0.28810245 -0 -0.95759959)
(0 -1 0)
(0.34947125 0 0.93694709)
(0 -1 0)
(-0.14559272 -0 -0.98934461)
(0 -1 0)
(0.21256927 0 0.977146)
(0 -1 0)
(-0.036528775 -0 -0.9993326)
(0 -1 0)
(0.071327619 0 0.99745294)
)

// normal volume types

704
(
0
0
0
0
0
0
0
0
0
0
0
0
0
0
0
0
0
0
0
0
0
0
0
0
0
0
0
0
0
0
0
0
0
0
0
0
0
0
0
0
0
0
0
0
0
0
0
0
0
0
0
0
0
0
0
0
0
0
0
0
0
0
0
0
0
0
0
0
0
0
0
0
0
0
0
0
0
0
0
0
0
0
0
0
0
0
0
0
0
0
0
0
0
0
0
0
0
0
0
0
0
0
0
0
0
0
0
0
0
0
0
0
0
0
0
0
0
0
0
0
0
0
0
0
0
0
0
0
0
0
0
0
0
0
0
0
0
0
0
0
0
0
0
0
0
0
0
0
0
0
0
0
0
0
0
0
0
0
0
0
0
0
0
0
0
0
0
0
0
0
0
0
0
0
0
0
0
0
0
0
0
0
0
0
0
0
0
0
0
0
0
0
0
0
0
0
0
0
0
0
0
0
0
0
0
0
0
0
0
0
0
0
0
0
0
0
0
0
0
0
0
0
0
0
0
0
0
0
0
0
0
0
0
0
0
0
0
0
0
0
0
0
0
0
0
0
0
0
0
0
0
0
0
0
0
0
0
0
0
0
0
0
0
0
0
0
0
0
0
0
0
0
0
0
0
0
0
0
0
0
0
0
0
0
0
0
0
0
0
0
0
0
0
0
0
0
0
0
0
0
0
0
0
0
0
0
0
0
0
0
0
0
0
0
0
0
0
0
0
0
0
0
0
0
0
0
0
0
0
0
0
0
0
0
0
0
0
0
0
0
0
0
0
0
0
0
0
0
0
0
0
0
0
0
0
0
0
0
0
0
0
0
0
0
0
0
0
0
0
0
0
0
0
0
0
0
0
0
0
0
0
0
0
0
0
0
0
0
0
0
0
0
0
0
0
0
0
0
0
0
0
0
0
0
0
0
0
0
0
0
0
0
0
0
0
0
0
0
0
0
0
0
0
0
0
0
0
0
0
0
0
0
0
0
0
0
0
0
0
0
0
0
0
0
0
0
0
0
0
0
0
0
0
0
0
0
0
0
0
0
0
0
0
0
0
0
0
0
0
0
0
0
0
0
0
0
0
0
0
0
0
0
0
0
0
0
0
0
0
0
0
0
0
0
0
0
0
0
0
0
0
0
0
0
0
0
0
0
0
0
0
0
0
0
0
0
0
0
0
0
0
0
0
0
0
0
0
0
0
0
0
0
0
0
0
0
0
0
0
0
0
0
0
0
0
0
0
0
0
0
0
0
0
0
0
0
0
0
0
0
0
0
0
0
0
0
0
0
0
0
0
0
0
0
0
0
0
0
0
0
0
0
0
0
0
0
0
0
0
0
0
0
0
0
0
0
0
0
0
0
0
0
0
0
0
0
0
0
0
0
0
0
0
0
0
0
0
0
0
0
0
0
0
0
0
0
0
0
0
0
0
0
0
0
0
0
0
0
0
0
0
0
0
0
0
0
0
0
0
0
0
0
0
0
0
0
0
0
0
0
0
0
0
0
0
0
0
0
0
0
0
0
0
0
0
0
0
0
0
0
0
0
0
0
0
0
0
0
0
0
0
0
0
0
0
0
0
0
0
0
0
0
0
0
)

// normalDirections

352
(
2(1 -1)
2(1 -1)
2(1 -1)
2(1 -1)
2(1 -1)
2(1 -1)
2(1 -1)
2(1 -1)
2(1 -1)
2(1 -1)
2(1 -1)
2(1 -1)
2(1 -1)
2(1 -1)
2(1 -1)
2(1 -1)
2(1 -1)
2(1 -1)
2(1 -1)
2(1 -1)
2(1 -1)
2(1 -1)
2(1 -1)
2(1 -1)
2(1 -1)
2(1 -1)
2(1 -1)
2(1 -1)
2(1 -1)
2(1 -1)
2(1 -1)
2(1 -1)
2(1 -1)
2(1 -1)
2(1 -1)
2(1 -1)
2(1 -1)
2(1 -1)
2(1 -1)
2(1 -1)
2(1 -1)
2(1 -1)
2(1 -1)
2(1 -1)
2(1 -1)
2(1 -1)
2(1 -1)
2(1 -1)
2(1 -1)
2(1 -1)
2(1 -1)
2(1 -1)
2(1 -1)
2(1 -1)
2(1 -1)
2(1 -1)
2(1 -1)
2(1 -1)
2(1 -1)
2(1 -1)
2(1 -1)
2(1 -1)
2(1 -1)
2(1 -1)
2(1 -1)
2(1 -1)
2(1 -1)
2(1 -1)
2(1 -1)
2(1 -1)
2(1 -1)
2(1 -1)
2(1 -1)
2(1 -1)
2(1 -1)
2(1 -1)
2(1 -1)
2(1 -1)
2(1 -1)
2(1 -1)
2(1 -1)
2(1 -1)
2(1 -1)