/*--------------------------------*- C++ -*----------------------------------*\
  =========                 |
  \\      /  F ield         | OpenFOAM: The Open Source CFD Toolbox
   \\    /   O peration     | Website:  https://openfoam.org
    \\  /    A nd           | Version:  9
     \\/     M anipulation  |
\*---------------------------------------------------------------------------*/
FoamFile
{
    format      ascii;
    class       extendedFeatureEdgeMesh;
    location    "constant/extendedFeatureEdgeMesh";
    object      vessel.extendedFeatureEdgeMesh;
}
// * * * * * * * * * * * * * * * * * * * * * * * * * * * * * * * * * * * * * //

// points

144
(
(331.04849 0.1479158 471.39429)
(313.6973 0.1479158 469.72729)
(331.04849 1200.1479 471.39429)
(347.84671 1200.1479 476.04889)
(347.84671 0.1479158 476.04889)
(363.58151 1200.1479 483.5498)
(363.58151 0.1479158 483.5498)
(377.7746 1200.1479 493.66901)
(377.7746 0.1479158 493.66901)
(389.995 1200.1479 506.09909)
(389.995 0.1479158 506.09909)
(399.87119 1200.1479 520.4624)
(399.87119 0.1479158 520.4624)
(407.1033 1200.1479 536.32251)
(407.1033 0.1479158 536.32251)
(411.47141 1200.1479 553.19751)
(411.47141 0.1479158 553.19751)
(412.8428 1200.1479 570.57458)
(412.8428 0.1479158 570.57458)
(411.17581 1200.1479 587.9259)
(411.17581 0.1479158 587.9259)
(406.52121 1200.1479 604.72412)
(406.52121 0.1479158 604.72412)
(399.02029 1200.1479 620.4588)
(399.02029 0.1479158 620.4588)
(388.90109 1200.1479 634.65198)
(388.90109 0.1479158 634.65198)
(376.47101 1200.1479 646.87231)
(376.47101 0.1479158 646.87231)
(362.1077 1200.1479 656.7486)
(362.1077 0.1479158 656.7486)
(346.24759 1200.1479 663.98059)
(346.24759 0.1479158 663.98059)
(329.37259 1200.1479 668.34869)
(329.37259 0.1479158 668.34869)
(311.99551 1200.1479 669.72009)
(311.99551 0.1479158 669.72009)
(294.6442 1200.1479 668.05322)
(294.6442 0.1479158 668.05322)
(277.84601 1200.1479 663.39862)
(277.84601 0.1479158 663.39862)
(262.1113 1200.1479 655.89771)
(262.1113 0.1479158 655.89771)
(247.91811 1200.1479 645.77838)
(247.91811 0.1479158 645.77838)
(235.6978 1200.1479 633.34833)
(235.6978 0.1479158 633.34833)
(225.8215 1200.1479 618.98499)
(225.8215 0.1479158 618.98499)
(218.58949 1200.1479 603.12488)
(218.58949 0.1479158 603.12488)
(214.22141 1200.1479 586.24988)
(214.22141 0.1479158 586.24988)
(212.85001 1200.1479 568.8728)
(212.85001 0.1479158 568.8728)
(214.51691 1200.1479 551.52161)
(214.51691 0.1479158 551.52161)
(219.17149 1200.1479 534.72339)
(219.17149 0.1479158 534.72339)
(226.67239 1200.1479 518.98859)
(226.67239 0.1479158 518.98859)
(236.7917 1200.1479 504.7955)
(236.7917 0.1479158 504.7955)
(249.2218 1200.1479 492.5751)
(249.2218 0.1479158 492.5751)
(263.58511 1200.1479 482.69891)
(263.58511 0.1479158 482.69891)
(279.44519 1200.1479 475.4668)
(279.44519 0.1479158 475.4668)
(296.32019 1200.1479 471.09879)
(296.32019 0.1479158 471.09879)
(313.6973 1200.1479 469.72729)
(344.9115 1198.1479 660.21033)
(328.71161 1198.1479 664.40369)
(312.02951 1198.1479 665.72021)
(295.37231 1198.1479 664.12)
(385.85889 1198.1479 632.05481)
(373.92599 1198.1479 643.78638)
(360.13721 1198.1479 653.26758)
(407.24271 1198.1479 587.19781)
(402.7742 1198.1479 603.3241)
(395.57339 1198.1479 618.42938)
(403.33301 1198.1479 537.65863)
(407.5264 1198.1479 553.85852)
(408.8429 1198.1479 570.54059)
(375.17749 1198.1479 496.71121)
(386.90909 1198.1479 508.6441)
(396.3902 1198.1479 522.43292)
(330.3205 1198.1479 475.32739)
(346.44669 1198.1479 479.7959)
(361.55209 1198.1479 486.9967)
(280.78119 1198.1479 479.23709)
(296.9812 1198.1479 475.04379)
(313.66321 1198.1479 473.7272)
(239.83389 1198.1479 507.39261)
(251.7668 1198.1479 495.6611)
(265.55551 1198.1479 486.1799)
(218.4501 1198.1479 552.24969)
(222.9185 1198.1479 536.12341)
(230.1194 1198.1479 521.01801)
(222.3598 1198.1479 601.78888)
(218.1664 1198.1479 585.58893)
(216.8499 1198.1479 568.90692)
(250.5153 1198.1479 642.73633)
(238.78371 1198.1479 630.80341)
(229.30251 1198.1479 617.01459)
(279.246 1198.1479 659.65161)
(264.14069 1198.1479 652.45068)
(346.44669 3.1479161 479.7959)
(330.3205 3.1479161 475.32739)
(313.66321 3.1479161 473.7272)
(296.9812 3.1479161 475.04379)
(386.90909 3.1479161 508.6441)
(375.17749 3.1479161 496.71121)
(361.55209 3.1479161 486.9967)
(407.5264 3.1479161 553.85852)
(403.33301 3.1479161 537.65863)
(396.3902 3.1479161 522.43292)
(402.7742 3.1479161 603.3241)
(407.24271 3.1479161 587.19781)
(408.8429 3.1479161 570.54059)
(373.92599 3.1479161 643.78638)
(385.85889 3.1479161 632.05481)
(395.57339 3.1479161 618.42938)
(328.71161 3.1479161 664.40369)
(344.9115 3.1479161 660.21033)
(360.13721 3.1479161 653.26758)
(279.246 3.1479161 659.65161)
(295.37231 3.1479161 664.12)
(312.02951 3.1479161 665.72021)
(238.78371 3.1479161 630.80341)
(250.5153 3.1479161 642.73633)
(264.14069 3.1479161 652.45068)
(218.1664 3.1479161 585.58893)
(222.3598 3.1479161 601.78888)
(229.30251 3.1479161 617.01459)
(222.9185 3.1479161 536.12341)
(218.4501 3.1479161 552.24969)
(216.8499 3.1479161 568.90692)
(251.7668 3.1479161 495.6611)
(239.83389 3.1479161 507.39261)
(230.1194 3.1479161 521.01801)
(280.78119 3.1479161 479.23709)
(265.55551 3.1479161 486.1799)
)

// edges

144
(
(0 1)
(2 3)
(4 0)
(3 5)
(6 4)
(5 7)
(8 6)
(7 9)
(10 8)
(9 11)
(12 10)
(11 13)
(14 12)
(13 15)
(16 14)
(15 17)
(18 16)
(17 19)
(20 18)
(19 21)
(22 20)
(21 23)
(24 22)
(23 25)
(26 24)
(25 27)
(28 26)
(27 29)
(30 28)
(29 31)
(32 30)
(31 33)
(34 32)
(33 35)
(36 34)
(35 37)
(38 36)
(37 39)
(40 38)
(39 41)
(42 40)
(41 43)
(44 42)
(43 45)
(46 44)
(45 47)
(48 46)
(47 49)
(50 48)
(49 51)
(52 50)
(51 53)
(54 52)
(53 55)
(56 54)
(55 57)
(58 56)
(57 59)
(60 58)
(59 61)
(62 60)
(61 63)
(64 62)
(63 65)
(66 64)
(65 67)
(68 66)
(67 69)
(70 68)
(69 71)
(1 70)
(71 2)
(72 73)
(73 74)
(74 75)
(76 77)
(77 78)
(78 72)
(79 80)
(80 81)
(81 76)
(82 83)
(83 84)
(84 79)
(85 86)
(86 87)
(87 82)
(88 89)
(89 90)
(90 85)
(91 92)
(92 93)
(93 88)
(94 95)
(95 96)
(96 91)
(97 98)
(98 99)
(99 94)
(100 101)
(101 102)
(102 97)
(103 104)
(104 105)
(105 100)
(75 106)
(106 107)
(107 103)
(108 109)
(109 110)
(110 111)
(112 113)
(113 114)
(114 108)
(115 116)
(116 117)
(117 112)
(118 119)
(119 120)
(120 115)
(121 122)
(122 123)
(123 118)
(124 125)
(125 126)
(126 121)
(127 128)
(128 129)
(129 124)
(130 131)
(131 132)
(132 127)
(133 134)
(134 135)
(135 130)
(136 137)
(137 138)
(138 133)
(139 140)
(140 141)
(141 136)
(111 142)
(142 143)
(143 139)
)

// concaveStart mixedStart nonFeatureStart
0 0 0
// internalStart flatStart openStart multipleStart
72 144 144 144
// normals

288
(
(0.095633277 0 -0.99541663)
(0 -1 0)
(0.26702763 0 -0.96368887)
(0 1 0)
(0.26702763 0 -0.96368887)
(0 -1 0)
(0.43031479 0 -0.90267889)
(0 1 0)
(0.43031479 0 -0.90267889)
(0 -1 0)
(0.580527 0 -0.814241)
(0 1 0)
(0.580527 0 -0.814241)
(0 -1 0)
(0.7130959 0 -0.7010665)
(0 1 0)
(0.7130959 0 -0.7010665)
(0 -1 0)
(0.82400407 0 -0.56658388)
(0 1 0)
(0.82400407 0 -0.56658388)
(0 -1 0)
(0.90986926 0 -0.41489509)
(0 1 0)
(0.90986926 0 -0.41489509)
(0 -1 0)
(0.96809295 0 -0.25059139)
(0 1 0)
(0.96809295 0 -0.25059139)
(0 -1 0)
(0.99690029 0 -0.078675379)
(-0 1 0)
(0.99690029 0 -0.078675379)
(0 -1 0)
(0.9954167 -0 0.09563261)
(0 1 0)
(0.9954167 0 0.09563261)
(0 -1 0)
(0.96368887 -0 0.26702763)
(0 1 0)
(0.96368887 0 0.26702763)
(-0 -1 0)
(0.9026776 -0 0.43031751)
(0 1 0)
(0.9026776 0 0.43031751)
(0 -1 0)
(0.81424277 -0 0.58052452)
(0 1 0)
(0.81424277 0 0.58052452)
(0 -1 0)
(0.70106472 -0 0.71309765)
(0 1 0)
(0.70106472 0 0.71309765)
(-0 -1 0)
(0.56658745 -0 0.82400162)
(0 1 0)
(0.56658745 0 0.82400162)
(0 -1 0)
(0.41488929 -0 0.9098719)
(0 1 0)
(0.41488929 0 0.9098719)
(0 -1 0)
(0.25059139 -0 0.96809295)
(0 1 0)
(0.25059139 0 0.96809295)
(-0 -1 0)
(0.078675379 -0 0.99690029)
(0 1 -0)
(0.078675379 0 0.99690029)
(0 -1 0)
(-0.095625671 0 0.99541737)
(0 1 0)
(-0.095625671 0 0.99541737)
(0 -1 0)
(-0.26702808 0 0.96368875)
(-0 1 0)
(-0.26702808 0 0.96368875)
(0 -1 -0)
(-0.43031683 0 0.90267792)
(0 1 0)
(-0.43031683 0 0.90267792)
(0 -1 0)
(-0.58052874 0 0.81423975)
(0 1 0)
(-0.58052874 0 0.81423975)
(0 -1 0)
(-0.71309766 0 0.70106471)
(-0 1 0)
(-0.71309766 0 0.70106471)
(0 -1 -0)
(-0.82400177 0 0.56658722)
(0 1 0)
(-0.82400177 0 0.56658722)
(0 -1 0)
(-0.90987157 0 0.41489001)
(0 1 0)
(-0.90987157 0 0.41489001)
(0 -1 0)
(-0.96809316 0 0.25059057)
(-0 1 0)
(-0.96809316 0 0.25059057)
(0 -1 -0)
(-0.99690029 0 0.078675379)
(0 1 0)
(-0.99690029 0 0.078675379)
(-0 -1 0)
(-0.99541713 0 -0.095628072)
(0 1 0)
(-0.99541713 0 -0.095628072)
(0 -1 0)
(-0.9636891 0 -0.26702681)
(0 1 -0)
(-0.9636891 0 -0.26702681)
(0 -1 0)
(-0.90267923 0 -0.43031408)
(0 1 0)
(-0.90267923 0 -0.43031408)
(0 -1 0)
(-0.8142381 0 -0.58053106)
(0 1 0)
(-0.8142381 0 -0.58053106)
(0 -1 0)
(-0.70106606 0 -0.71309633)
(0 1 -0)
(-0.70106606 0 -0.71309633)
(0 -1 0)
(-0.56658388 0 -0.82400407)
(0 1 0)
(-0.56658388 0 -0.82400407)
(0 -1 0)
(-0.41489575 0 -0.90986896)
(0 1 0)
(-0.41489575 0 -0.90986896)
(0 -1 0)
(-0.25058647 0 -0.96809422)
(0 1 -0)
(-0.25058647 0 -0.96809422)
(0 -1 0)
(-0.078680462 0 -0.99689989)
(0 1 0)
(-0.078680462 0 -0.99689989)
(0 -1 -0)
(0.095633277 0 -0.99541663)
(0 1 0)
(-0 -1 0)
(-0.25059189 -0 -0.96809282)
(0 -1 0)
(-0.078674012 -0 -0.9969004)
(0 -1 0)
(0.095627512 0 -0.99541719)
(-0 -1 0)
(-0.70106573 -0 -0.71309666)
(0 -1 0)
(-0.56658602 -0 -0.8240026)
(0 -1 0)
(-0.41489087 -0 -0.90987118)
(-0 -1 0)
(-0.96368749 -0 -0.26703262)
(0 -1 0)
(-0.90267921 -0 -0.43031411)
(0 -1 0)
(-0.81424022 -0 -0.58052809)
(0 -1 0)
(-0.96809238 0 0.2505936)
(0 -1 0)
(-0.99690053 0 0.078672342)
(0 -1 0)
(-0.99541738 -0 -0.095625532)
(0 -1 0)
(-0.71309575 0 0.70106666)
(0 -1 0)
(-0.82400574 0 0.56658145)
(0 -1 0)
(-0.9098698 0 0.41489389)
(0 -1 0)
(-0.26703402 0 0.9636871)
(0 -1 0)
(-0.43031128 0 0.90268057)
(0 -1 0)
(-0.58052895 0 0.81423961)
(0 -1 0)
(0.2505867 0 0.96809416)
(0 -1 -0)
(0.078678066 0 0.99690008)
(0 -1 0)
(-0.095625185 0 0.99541741)
(0 -1 0)
(0.70106342 0 0.71309893)
(0 -1 0)
(0.56658815 0 0.82400114)
(0 -1 0)
(0.41489458 0 0.90986949)
(0 -1 0)
(0.96368913 0 0.26702669)
(0 -1 0)
(0.90267844 0 0.43031574)
(0 -1 0)
(0.81424004 0 0.58052834)
(0 -1 -0)
(0.96809238 0 -0.25059357)
(-0 -1 0)
(0.99690051 0 -0.078672628)
(0 -1 0)
(0.99541729 0 0.095626435)
(0 -1 -0)
(0.71309664 0 -0.70106574)
(0 -1 0)
(0.82400318 0 -0.56658517)
(0 -1 0)
(0.90987221 0 -0.41488861)
(0 -1 -0)
(0.26702537 0 -0.9636895)
(0 -1 0)
(0.43031935 0 -0.90267672)
(0 -1 0)
(0.58052333 0 -0.81424361)
(0 1 0)
(-0.26703402 0 0.9636871)
(0 1 0)
(-0.095625185 0 0.99541741)
(0 1 0)
(0.078678066 0 0.99690008)
(0 1 0)
(-0.71309575 0 0.70106666)
(0 1 0)
(-0.58052895 0 0.81423961)
(0 1 0)
(-0.43031128 0 0.90268057)
(0 1 0)
(-0.96809238 0 0.2505936)
(0 1 0)
(-0.9098698 0 0.41489389)
(0 1 0)
(-0.82400574 0 0.56658145)
(0 1 0)
(-0.96368749 -0 -0.26703262)
(0 1 0)
(-0.99541738 -0 -0.095625532)
(-0 1 0)
(-0.99690053 0 0.078672342)
(0 1 0)
(-0.70106573 -0 -0.71309666)
(0 1 0)
(-0.81424022 -0 -0.58052809)
(0 1 0)
(-0.90267921 -0 -0.43031411)
(0 1 0)
(-0.25059189 -0 -0.96809282)
(0 1 0)
(-0.41489087 -0 -0.90987118)
(0 1 0)
(-0.56658602 -0 -0.8240026)
(-0 1 0)
(0.26702537 0 -0.9636895)
(0 1 0)
(0.095627512 0 -0.99541719)
(0 1 -0)
(-0.078674012 -0 -0.9969004)
(-0 1 0)
(0.71309664 0 -0.70106574)
(0 1 0)
(0.58052333 0 -0.81424361)
(0 1 0)
(0.43031935 0 -0.90267672)
(-0 1 0)
(0.96809238 0 -0.25059357)
(0 1 0)
(0.90987221 0 -0.41488861)
(0 1 0)
(0.82400318 0 -0.56658517)
(0 1 -0)
(0.96368913 0 0.26702669)
(0 1 0)
(0.99541729 0 0.095626435)
(0 1 0)
(0.99690051 0 -0.078672628)
(0 1 -0)
(0.70106342 0 0.71309893)
(0 1 0)
(0.81424004 0 0.58052834)
(0 1 0)
(0.90267844 0 0.43031574)
(0 1 -0)
(0.2505867 0 0.96809416)
(0 1 0)
(0.41489458 0 0.90986949)
(0 1 0)
(0.56658815 0 0.82400114)
)

// normal volume types

288
(
0
0
0
0
0
0
0
0
0
0
0
0
0
0
0
0
0
0
0
0
0
0
0
0
0
0
0
0
0
0
0
0
0
0
0
0
0
0
0
0
0
0
0
0
0
0
0
0
0
0
0
0
0
0
0
0
0
0
0
0
0
0
0
0
0
0
0
0
0
0
0
0
0
0
0
0
0
0
0
0
0
0
0
0
0
0
0
0
0
0
0
0
0
0
0
0
0
0
0
0
0
0
0
0
0
0
0
0
0
0
0
0
0
0
0
0
0
0
0
0
0
0
0
0
0
0
0
0
0
0
0
0
0
0
0
0
0
0
0
0
0
0
0
0
0
0
0
0
0
0
0
0
0
0
0
0
0
0
0
0
0
0
0
0
0
0
0
0
0
0
0
0
0
0
0
0
0
0
0
0
0
0
0
0
0
0
0
0
0
0
0
0
0
0
0
0
0
0
0
0
0
0
0
0
0
0
0
0
0
0
0
0
0
0
0
0
0
0
0
0
0
0
0
0
0
0
0
0
0
0
0
0
0
0
0
0
0
0
0
0
0
0
0
0
0
0
0
0
0
0
0
0
0
0
0
0
0
0
0
0
0
0
0
0
0
0
0
0
0
0
0
0
0
0
0
0
0
0
0
0
0
0
0
0
0
0
0
0
)

// normalDirections

144
(
2(1 -1)
2(1 -1)
2(1 -1)
2(1 -1)
2(1 -1)
2(1 -1)
2(1 -1)
2(1 -1)
2(1 -1)
2(1 -1)
2(1 -1)
2(1 -1)
2(1 -1)
2(1 -1)
2(1 -1)
2(1 -1)
2(1 -1)
2(1 -1)
2(1 -1)
2(1 -1)
2(1 -1)
2(1 -1)
2(1 -1)
2(1 -1)
2(1 -1)
2(1 -1)
2(1 -1)
2(1 -1)
2(1 -1)
2(1 -1)
2(1 -1)
2(1 -1)
2(1 -1)
2(1 -1)
2(1 -1)
2(1 -1)
2(1 -1)
2(1 -1)
2(1 -1)
2(1 -1)
2(1 -1)
2(1 -1)
2(1 -1)
2(1 -1)
2(1 -1)
2(1 -1)
2(1 -1)
2(1 -1)
2(1 -1)
2(1 -1)
2(1 -1)
2(1 -1)
2(1 -1)
2(1 -1)
2(1 -1)
2(1 -1)
2(1 -1)
2(1 -1)
2(1 -1)
2(1 -1)
2(1 -1)
2(1 -1)
2(1 -1)
2(1 -1)
2(1 -1)
2(1 -1)
2(1 -1)
2(1 -1)
2(1 -1)
2(1 -1)
2(1 -1)
2(1 -1)
2(1 -1)
2(1 -1)
2(1 -1)
2(1 -1)
2(1 -1)
2(1 -1)
2(1 -1)
2(1 -1)
2(1 -1)
2(1 -1)
2(1 -1)
2(1 -1)
2(1 -1)
2(1 -1)
2(1 -1)
2(1 -1)
2(1 -1)
2(1 -1)
2(1 -1)
2(1 -1)
2(1 -1)
2(1 -1)
2(1 -1)
2(1 -1)
2(1 -1)
2(1 -1)
2(1 -1)
2(1 -1)
2(1 -1)
2(1 -1)
2(1 -1)
2(1 -1)
2(1 -1)
2(1 -1)
2(1 -1)
2(1 -1)
2(1 -1)
2(1 -1)
2(1 -1)
2(1 -1)
2(1 -1)
2(1 -1)
2(1 -1)
2(1 -1)
2(1 -1)
2(1 -1)
2(1 -1)
2(1 -1)
2(1 -1)
2(1 -1)
2(1 -1)
2(1 -1)
2(1 -1)
2(1 -1)
2(1 -1)
2(1 -1)
2(1 -1)
2(1 -1)
2(1 -1)
2(1 -1)
2(1 -1)
2(1 -1)
2(1 -1)
2(1 -1)
2(1 -1)
2(1 -1)
2(1 -1)
2(1 -1)
2(1 -1)
2(1 -1)
2(1 -1)
2(1 -1)
)

// edgeNormals

144
(
2(0 1)
2(2 3)
2(4 5)
2(6 7)
2(8 9)
2(10 11)
2(12 13)
2(14 15)
2(16 17)
2(18 19)
2(20 21)
2(22 23)
2(24 25)
2(26 27)
2(28 29)
2(30 31)
2(32 33)
2(34 35)
2(36 37)
2(38 39)
2(40 41)
2(42 43)
2(44 45)
2(46 47)
2(48 49)
2(50 51)
2(52 53)
2(54 55)
2(56 57)
2(58 59)
2(60 61)
2(62 63)
2(64 65)
2(66 67)
2(68 69)
2(70 71)
2(72 73)
2(74 75)
2(76 77)
2(78 79)
2(80 81)
2(82 83)
2(84 85)
2(86 87)
2(88 89)
2(90 91)
2(92 93)
2(94 95)
2(96 97)
2(98 99)
2(100 101)
2(102 103)
2(104 105)
2(106 107)
2(108 109)
2(110 111)
2(112 113)
2(114 115)
2(116 117)
2(118 119)
2(120 121)
2(122 123)
2(124 125)
2(126 127)
2(128 129)
2(130 131)
2(132 133)
2(134 135)
2(136 137)
2(138 139)
2(140 141)
2(142 143)
2(144 145)
2(146 147)
2(148 149)
2(150 151)
2(152 153)
2(154 155)
2(156 157)
2(158 159)
2(160 161)
2(162 163)
2(164 165)
2(166 167)
2(168 169)
2(170 171)
2(172 173)
2(174 175)
2(176 177)
2(178 179)
2(180 181)
2(182 183)
2(184 185)
2(186 187)
2(188 189)
2(190 191)
2(192 193)
2(194 195)
2(196 197)
2(198 199)
2(200 201)
2(202 203)
2(204 205)
2(206 207)
2(208 209)
2(210 211)
2(212 213)
2(214 215)
2(216 217)
2(218 219)
2(220 221)
2(222 223)
2(224 225)
2(226 227)
2(228 229)
2(230 231)
2(232 233)
2(234 235)
2(236 237)
2(238 239)
2(240 241)
2(242 243)
2(244 245)
2(246 247)
2(248 249)
2(250 251)
2(252 253)
2(254 255)
2(256 257)
2(258 259)
2(260 261)
2(262 263)
2(264 265)
2(266 267)
2(268 269)
2(270 271)
2(272 273)
2(274 275)
2(276 277)
2(278 279)
2(280 281)
2(282 283)
2(284 285)
2(286 287)
)

// featurePointNormals
0()
// featurePointEdges
0()
// regionEdges
0()


// ************************************************************************* //
