/*--------------------------------*- C++ -*----------------------------------*\
  =========                 |
  \\      /  F ield         | OpenFOAM: The Open Source CFD Toolbox
   \\    /   O peration     | Website:  https://openfoam.org
    \\  /    A nd           | Version:  9
     \\/     M anipulation  |
\*---------------------------------------------------------------------------*/
FoamFile
{
    format      ascii;
    class       extendedFeatureEdgeMesh;
    location    "constant/extendedFeatureEdgeMesh";
    object      outlet.extendedFeatureEdgeMesh;
}
// * * * * * * * * * * * * * * * * * * * * * * * * * * * * * * * * * * * * * //

// points

120
(
(553.90741 1274.916 1255)
(554.72607 1269.746 1255)
(555 1264.52 1255)
(554.72607 1259.2939 1255)
(548.30127 1289.52 1255)
(550.67731 1284.8571 1255)
(552.5528 1279.9709 1255)
(538.45648 1301.677 1255)
(542.15723 1297.9771 1255)
(545.45081 1293.9091 1255)
(525.33679 1310.197 1255)
(530 1307.821 1255)
(534.38928 1304.9709 1255)
(510.22641 1314.246 1255)
(515.39563 1313.427 1255)
(520.45081 1312.073 1255)
(494.6044 1313.427 1255)
(499.77359 1314.246 1255)
(505 1314.52 1255)
(480 1307.821 1255)
(484.66321 1310.197 1255)
(489.5491 1312.073 1255)
(467.8428 1297.9771 1255)
(471.54349 1301.677 1255)
(475.61069 1304.9709 1255)
(459.32269 1284.8571 1255)
(461.6987 1289.52 1255)
(464.5491 1293.9091 1255)
(455.2739 1269.746 1255)
(456.09259 1274.916 1255)
(457.4472 1279.9709 1255)
(456.09259 1254.124 1255)
(455.2739 1259.2939 1255)
(455 1264.52 1255)
(461.6987 1239.52 1255)
(459.32269 1244.183 1255)
(457.4472 1249.069 1255)
(471.54349 1227.363 1255)
(467.8428 1231.063 1255)
(464.5491 1235.131 1255)
(484.66321 1218.843 1255)
(480 1221.219 1255)
(475.61069 1224.069 1255)
(499.77359 1214.7939 1255)
(494.6044 1215.613 1255)
(489.5491 1216.967 1255)
(515.39563 1215.613 1255)
(510.22641 1214.7939 1255)
(505 1214.52 1255)
(530 1221.219 1255)
(525.33679 1218.843 1255)
(520.45081 1216.967 1255)
(542.15723 1231.063 1255)
(538.45648 1227.363 1255)
(534.38928 1224.069 1255)
(550.67731 1244.183 1255)
(548.30127 1239.52 1255)
(545.45081 1235.131 1255)
(553.90741 1254.124 1255)
(552.5528 1249.069 1255)
(455.2739 1269.746 1257)
(456.09259 1274.916 1257)
(457.4472 1279.9709 1257)
(459.32269 1284.8571 1257)
(461.6987 1289.52 1257)
(464.5491 1293.9091 1257)
(467.8428 1297.9771 1257)
(471.54349 1301.677 1257)
(475.61069 1304.9709 1257)
(480 1307.821 1257)
(484.66321 1310.197 1257)
(489.5491 1312.073 1257)
(494.6044 1313.427 1257)
(499.77359 1314.246 1257)
(505 1314.52 1257)
(510.22641 1314.246 1257)
(515.39563 1313.427 1257)
(520.45081 1312.073 1257)
(525.33679 1310.197 1257)
(530 1307.821 1257)
(534.38928 1304.9709 1257)
(538.45648 1301.677 1257)
(542.15723 1297.9771 1257)
(545.45081 1293.9091 1257)
(548.30127 1289.52 1257)
(550.67731 1284.8571 1257)
(552.5528 1279.9709 1257)
(553.90741 1274.916 1257)
(554.72607 1269.746 1257)
(555 1264.52 1257)
(554.72607 1259.2939 1257)
(553.90741 1254.124 1257)
(552.5528 1249.069 1257)
(550.67731 1244.183 1257)
(548.30127 1239.52 1257)
(545.45081 1235.131 1257)
(542.15723 1231.063 1257)
(538.45648 1227.363 1257)
(534.38928 1224.069 1257)
(530 1221.219 1257)
(525.33679 1218.843 1257)
(520.45081 1216.967 1257)
(515.39563 1215.613 1257)
(510.22641 1214.7939 1257)
(505 1214.52 1257)
(499.77359 1214.7939 1257)
(494.6044 1215.613 1257)
(489.5491 1216.967 1257)
(484.66321 1218.843 1257)
(480 1221.219 1257)
(475.61069 1224.069 1257)
(471.54349 1227.363 1257)
(467.8428 1231.063 1257)
(464.5491 1235.131 1257)
(461.6987 1239.52 1257)
(459.32269 1244.183 1257)
(457.4472 1249.069 1257)
(456.09259 1254.124 1257)
(455.2739 1259.2939 1257)
(455 1264.52 1257)
)

// edges

120
(
(0 1)
(1 2)
(2 3)
(4 5)
(5 6)
(6 0)
(7 8)
(8 9)
(9 4)
(10 11)
(11 12)
(12 7)
(13 14)
(14 15)
(15 10)
(16 17)
(17 18)
(18 13)
(19 20)
(20 21)
(21 16)
(22 23)
(23 24)
(24 19)
(25 26)
(26 27)
(27 22)
(28 29)
(29 30)
(30 25)
(31 32)
(32 33)
(33 28)
(34 35)
(35 36)
(36 31)
(37 38)
(38 39)
(39 34)
(40 41)
(41 42)
(42 37)
(43 44)
(44 45)
(45 40)
(46 47)
(47 48)
(48 43)
(49 50)
(50 51)
(51 46)
(52 53)
(53 54)
(54 49)
(55 56)
(56 57)
(57 52)
(3 58)
(58 59)
(59 55)
(60 61)
(61 62)
(62 63)
(63 64)
(64 65)
(65 66)
(66 67)
(67 68)
(68 69)
(69 70)
(70 71)
(71 72)
(72 73)
(73 74)
(74 75)
(75 76)
(76 77)
(77 78)
(78 79)
(79 80)
(80 81)
(81 82)
(82 83)
(83 84)
(84 85)
(85 86)
(86 87)
(87 88)
(88 89)
(89 90)
(90 91)
(91 92)
(92 93)
(93 94)
(94 95)
(95 96)
(96 97)
(97 98)
(98 99)
(99 100)
(100 101)
(101 102)
(102 103)
(103 104)
(104 105)
(105 106)
(106 107)
(107 108)
(108 109)
(109 110)
(110 111)
(111 112)
(112 113)
(113 114)
(114 115)
(115 116)
(116 117)
(117 118)
(118 119)
(119 60)
)

// concaveStart mixedStart nonFeatureStart
0 0 0
// internalStart flatStart openStart multipleStart
120 120 120 120
// normals

240
(
(0 -0 -1)
(0.98769395 0.15639906 0)
(0 0 -1)
(0.99862908 0.052344576 0)
(0 0 -1)
(0.99862915 -0.052343357 0)
(0 -0 -1)
(0.89099579 0.45401156 0)
(0 0 -1)
(0.93358765 0.35834913 0)
(0 0 -1)
(0.96591869 0.25884568 0)
(0 -0 -1)
(0.70703097 0.70718259 0)
(0 0 -1)
(0.77720359 0.62924922 0)
(0 0 -1)
(0.83865405 0.54466446 0)
(0 -0 -1)
(0.45398343 0.89101013 0)
(0 0 -1)
(0.54459394 0.83869985 0)
(0 0 -1)
(0.62936562 0.77710934 0)
(0 -0 -1)
(0.15648026 0.98768109 0)
(0 0 -1)
(0.2587252 0.96595097 0)
(0 0 -1)
(0.35843825 0.93355344 0)
(0 0 -1)
(-0.15648117 0.98768094 0)
(0 0 -1)
(-0.052363265 0.9986281 0)
(0 0 -1)
(0.052363265 0.9986281 0)
(0 0 -1)
(-0.45398343 0.89101013 0)
(0 0 -1)
(-0.3584441 0.93355119 0)
(0 0 -1)
(-0.25871937 0.96595253 0)
(0 0 -1)
(-0.7070368 0.70717676 0)
(0 0 -1)
(-0.62936562 0.77710934 0)
(0 0 -1)
(-0.54459127 0.83870158 0)
(0 0 -1)
(-0.89099815 0.45400693 0)
(0 0 -1)
(-0.83865938 0.54465626 0)
(0 0 -1)
(-0.77719219 0.6292633 0)
(0 0 -1)
(-0.98769305 0.15640475 0)
(0 0 -1)
(-0.96591869 0.25884568 0)
(0 0 -1)
(-0.93358765 0.35834913 0)
(0 0 -1)
(-0.98769248 -0.15640835 0)
(-0 0 -1)
(-0.99862945 -0.052337542 0)
(0 0 -1)
(-0.99862939 0.052338761 0)
(0 0 -1)
(-0.89099815 -0.45400693 0)
(0 0 -1)
(-0.93358465 -0.35835693 0)
(0 0 -1)
(-0.96592025 -0.25883985 0)
(0 0 -1)
(-0.7070368 -0.70717676 0)
(0 0 -1)
(-0.77719219 -0.6292633 0)
(0 0 -1)
(-0.83865938 -0.54465626 0)
(0 0 -1)
(-0.45398343 -0.89101013 0)
(0 0 -1)
(-0.54457487 -0.83871224 0)
(0 0 -1)
(-0.6293797 -0.77709793 0)
(0 0 -1)
(-0.15650392 -0.98767734 0)
(0 0 -1)
(-0.25871937 -0.96595253 0)
(0 0 -1)
(-0.3584441 -0.93355119 0)
(-0 0 -1)
(0.15650302 -0.98767748 0)
(0 0 -1)
(0.052340004 -0.99862932 0)
(0 -0 -1)
(-0.052340004 -0.99862932 0)
(-0 0 -1)
(0.45398343 -0.89101013 0)
(0 0 -1)
(0.35843825 -0.93355344 0)
(0 0 -1)
(0.2587252 -0.96595097 0)
(-0 0 -1)
(0.70703097 -0.70718259 0)
(0 0 -1)
(0.6293797 -0.77709793 0)
(0 0 -1)
(0.54457753 -0.83871051 0)
(-0 0 -1)
(0.89099579 -0.45401156 0)
(0 0 -1)
(0.83865405 -0.54466446 0)
(0 0 -1)
(0.77720359 -0.62924922 0)
(-0 0 -1)
(0.98769338 -0.15640266 0)
(0 0 -1)
(0.96592025 -0.25883985 0)
(0 0 -1)
(0.93358465 -0.35835693 0)
(-0.98769305 0.15640475 0)
(0 0 1)
(-0.96591869 0.25884568 0)
(0 0 1)
(-0.93358765 0.35834913 0)
(0 0 1)
(-0.89099815 0.45400693 0)
(0 0 1)
(-0.83865938 0.54465626 0)
(0 0 1)
(-0.77719219 0.6292633 0)
(0 0 1)
(-0.7070368 0.70717676 0)
(0 0 1)
(-0.62936562 0.77710934 0)
(0 0 1)
(-0.54459127 0.83870158 0)
(0 0 1)
(-0.45398343 0.89101013 0)
(0 0 1)
(-0.3584441 0.93355119 0)
(0 0 1)
(-0.25871937 0.96595253 0)
(0 0 1)
(-0.15648117 0.98768094 0)
(0 0 1)
(-0.052363265 0.9986281 0)
(0 -0 1)
(0.052363265 0.9986281 -0)
(0 0 1)
(0.15648026 0.98768109 -0)
(0 0 1)
(0.2587252 0.96595097 -0)
(0 0 1)
(0.35843825 0.93355344 -0)
(0 0 1)
(0.45398343 0.89101013 -0)
(0 0 1)
(0.54459394 0.83869985 -0)
(0 0 1)
(0.62936562 0.77710934 -0)
(0 0 1)
(0.70703097 0.70718259 -0)
(0 0 1)
(0.77720359 0.62924922 -0)
(0 0 1)
(0.83865405 0.54466446 -0)
(0 0 1)
(0.89099579 0.45401156 -0)
(0 0 1)
(0.93358765 0.35834913 -0)
(0 0 1)
(0.96591869 0.25884568 -0)
(0 0 1)
(0.98769395 0.15639906 -0)
(0 0 1)
(0.99862908 0.052344576 -0)
(0 0 1)
(0.99862915 -0.052343357 0)
(-0 0 1)
(0.98769338 -0.15640266 0)
(0 -0 1)
(0.96592025 -0.25883985 0)
(0 0 1)
(0.93358465 -0.35835693 0)
(0 0 1)
(0.89099579 -0.45401156 0)
(0 -0 1)
(0.83865405 -0.54466446 0)
(0 0 1)
(0.77720359 -0.62924922 0)
(0 0 1)
(0.70703097 -0.70718259 0)
(0 -0 1)
(0.6293797 -0.77709793 0)
(0 0 1)
(0.54457753 -0.83871051 0)
(0 0 1)
(0.45398343 -0.89101013 0)
(0 -0 1)
(0.35843825 -0.93355344 0)
(0 0 1)
(0.2587252 -0.96595097 0)
(0 0 1)
(0.15650302 -0.98767748 0)
(0 -0 1)
(0.052340004 -0.99862932 0)
(0 0 1)
(-0.052340004 -0.99862932 0)
(0 0 1)
(-0.15650392 -0.98767734 0)
(-0 0 1)
(-0.25871937 -0.96595253 0)
(0 0 1)
(-0.3584441 -0.93355119 0)
(0 0 1)
(-0.45398343 -0.89101013 0)
(-0 0 1)
(-0.54457487 -0.83871224 0)
(0 0 1)
(-0.6293797 -0.77709793 0)
(0 0 1)
(-0.7070368 -0.70717676 0)
(-0 0 1)
(-0.77719219 -0.6292633 0)
(0 0 1)
(-0.83865938 -0.54465626 0)
(0 0 1)
(-0.89099815 -0.45400693 0)
(-0 0 1)
(-0.93358465 -0.35835693 0)
(0 0 1)
(-0.96592025 -0.25883985 0)
(0 0 1)
(-0.98769248 -0.15640835 0)
(-0 0 1)
(-0.99862945 -0.052337542 0)
(0 0 1)
(-0.99862939 0.052338761 0)
(0 0 1)
)

// normal volume types

240
(
0
0
0
0
0
0
0
0
0
0
0
0
0
0
0
0
0
0
0
0
0
0
0
0
0
0
0
0
0
0
0
0
0
0
0
0
0
0
0
0
0
0
0
0
0
0
0
0
0
0
0
0
0
0
0
0
0
0
0
0
0
0
0
0
0
0
0
0
0
0
0
0
0
0
0
0
0
0
0
0
0
0
0
0
0
0
0
0
0
0
0
0
0
0
0
0
0
0
0
0
0
0
0
0
0
0
0
0
0
0
0
0
0
0
0
0
0
0
0
0
0
0
0
0
0
0
0
0
0
0
0
0
0
0
0
0
0
0
0
0
0
0
0
0
0
0
0
0
0
0
0
0
0
0
0
0
0
0
0
0
0
0
0
0
0
0
0
0
0
0
0
0
0
0
0
0
0
0
0
0
0
0
0
0
0
0
0
0
0
0
0
0
0
0
0
0
0
0
0
0
0
0
0
0
0
0
0
0
0
0
0
0
0
0
0
0
0
0
0
0
0
0
0
0
0
0
0
0
0
0
0
0
0
0
0
0
0
0
0
0
)

// normalDirections

120
(
2(1 -1)
2(1 -1)
2(1 -1)
2(1 -1)
2(1 -1)
2(1 -1)
2(1 -1)
2(1 -1)
2(1 -1)
2(1 -1)
2(1 -1)
2(1 -1)
2(1 -1)
2(1 -1)
2(1 -1)
2(1 -1)
2(1 -1)
2(1 -1)
2(1 -1)
2(1 -1)
2(1 -1)
2(1 -1)
2(1 -1)
2(1 -1)
2(1 -1)
2(1 -1)
2(1 -1)
2(1 -1)
2(1 -1)
2(1 -1)
2(1 -1)
2(1 -1)
2(1 -1)
2(1 -1)
2(1 -1)
2(1 -1)
2(1 -1)
2(1 -1)
2(1 -1)
2(1 -1)
2(1 -1)
2(1 -1)
2(1 -1)
2(1 -1)
2(1 -1)
2(1 -1)
2(1 -1)
2(1 -1)
2(1 -1)
2(1 -1)
2(1 -1)
2(1 -1)
2(1 -1)
2(1 -1)
2(1 -1)
2(1 -1)
2(1 -1)
2(1 -1)
2(1 -1)
2(1 -1)
2(1 -1)
2(1 -1)
2(1 -1)
2(1 -1)
2(1 -1)
2(1 -1)
2(1 -1)
2(1 -1)
2(1 -1)
2(1 -1)
2(1 -1)
2(1 -1)
2(1 -1)
2(1 -1)
2(1 -1)
2(1 -1)
2(1 -1)
2(1 -1)
2(1 -1)
2(1 -1)
2(1 -1)
2(1 -1)
2(1 -1)
2(1 -1)
2(1 -1)
2(1 -1)
2(1 -1)
2(1 -1)
2(1 -1)
2(1 -1)
2(1 -1)
2(1 -1)
2(1 -1)
2(1 -1)
2(1 -1)
2(1 -1)
2(1 -1)
2(1 -1)
2(1 -1)
2(1 -1)
2(1 -1)
2(1 -1)
2(1 -1)
2(1 -1)
2(1 -1)
2(1 -1)
2(1 -1)
2(1 -1)
2(1 -1)
2(1 -1)
2(1 -1)
2(1 -1)
2(1 -1)
2(1 -1)
2(1 -1)
2(1 -1)
2(1 -1)
2(1 -1)
2(1 -1)
2(1 -1)
)

// edgeNormals

120
(
2(0 1)
2(2 3)
2(4 5)
2(6 7)
2(8 9)
2(10 11)
2(12 13)
2(14 15)
2(16 17)
2(18 19)
2(20 21)
2(22 23)
2(24 25)
2(26 27)
2(28 29)
2(30 31)
2(32 33)
2(34 35)
2(36 37)
2(38 39)
2(40 41)
2(42 43)
2(44 45)
2(46 47)
2(48 49)
2(50 51)
2(52 53)
2(54 55)
2(56 57)
2(58 59)
2(60 61)
2(62 63)
2(64 65)
2(66 67)
2(68 69)
2(70 71)
2(72 73)
2(74 75)
2(76 77)
2(78 79)
2(80 81)
2(82 83)
2(84 85)
2(86 87)
2(88 89)
2(90 91)
2(92 93)
2(94 95)
2(96 97)
2(98 99)
2(100 101)
2(102 103)
2(104 105)
2(106 107)
2(108 109)
2(110 111)
2(112 113)
2(114 115)
2(116 117)
2(118 119)
2(120 121)
2(122 123)
2(124 125)
2(126 127)
2(128 129)
2(130 131)
2(132 133)
2(134 135)
2(136 137)
2(138 139)
2(140 141)
2(142 143)
2(144 145)
2(146 147)
2(148 149)
2(150 151)
2(152 153)
2(154 155)
2(156 157)
2(158 159)
2(160 161)
2(162 163)
2(164 165)
2(166 167)
2(168 169)
2(170 171)
2(172 173)
2(174 175)
2(176 177)
2(178 179)
2(180 181)
2(182 183)
2(184 185)
2(186 187)
2(188 189)
2(190 191)
2(192 193)
2(194 195)
2(196 197)
2(198 199)
2(200 201)
2(202 203)
2(204 205)
2(206 207)
2(208 209)
2(210 211)
2(212 213)
2(214 215)
2(216 217)
2(218 219)
2(220 221)
2(222 223)
2(224 225)
2(226 227)
2(228 229)
2(230 231)
2(232 233)
2(234 235)
2(236 237)
2(238 239)
)

// featurePointNormals
0()
// featurePointEdges
0()
// regionEdges
0()


// ************************************************************************* //
