/*--------------------------------*- C++ -*----------------------------------*\
  =========                 |
  \\      /  F ield         | OpenFOAM: The Open Source CFD Toolbox
   \\    /   O peration     | Website:  https://openfoam.org
    \\  /    A nd           | Version:  9
     \\/     M anipulation  |
\*---------------------------------------------------------------------------*/
FoamFile
{
    format      ascii;
    class       extendedFeatureEdgeMesh;
    location    "constant/extendedFeatureEdgeMesh";
    object      vessel.extendedFeatureEdgeMesh;
}
// * * * * * * * * * * * * * * * * * * * * * * * * * * * * * * * * * * * * * //

// points

460
(
(536.54358 1228.34 1002)
(541.77008 1233.666 1001.641)
(546.56921 1288.52 1001.262)
(541.77008 1295.374 1001.641)
(548.50488 1244.239 1001.096)
(550.10522 1248.103 1000.953)
(551.36353 1252.093 1000.837)
(552.27081 1256.1851 1000.751)
(546.56921 1240.52 1001.262)
(552.81818 1260.3459 1000.699)
(553 1264.52 1000.681)
(552.81781 1268.698 1000.699)
(552.27081 1272.855 1000.751)
(551.3609 1276.957 1000.837)
(550.10522 1280.937 1000.953)
(548.5058 1284.799 1001.096)
(536.54358 1300.7 1002)
(473.45639 1300.7 1002)
(468.22989 1295.374 1001.641)
(463.43079 1288.52 1001.262)
(461.4938 1284.798 1001.096)
(459.89481 1280.937 1000.953)
(458.63989 1276.96 1000.837)
(457.72919 1272.855 1000.751)
(457.18301 1268.708 1000.699)
(457 1264.52 1000.681)
(457.18399 1260.321 1000.699)
(457.72919 1256.1851 1000.751)
(458.63141 1252.1121 1000.837)
(459.89481 1248.103 1000.953)
(461.50269 1244.223 1001.097)
(463.43079 1240.52 1001.262)
(468.22989 1233.666 1001.641)
(473.45639 1228.34 1002)
(472.9649 254.52 1003.973)
(409.42068 254.52 995.7796)
(378.1727 254.52 21.35256)
(441.0614 254.52 9.1049967)
(505 254.52 4.9999952)
(157.15871 254.52 145.8253)
(205.9447 254.52 104.2932)
(259.6412 254.52 69.340652)
(317.36649 254.52 41.541611)
(537.0351 254.52 1003.973)
(505 254.52 1005)
(47.79369 254.52 302.60831)
(77.428612 254.52 245.8037)
(114.0842 254.52 193.2551)
(7.3104501 254.52 553.01147)
(5.2568908 254.52 488.97421)
(11.4091 254.52 425.20001)
(25.666059 254.52 362.73621)
(94.913872 254.52 791.05829)
(61.70034 254.52 736.2691)
(35.7658 254.52 677.6825)
(17.536039 254.52 616.2605)
(347.44589 254.52 979.52789)
(288.05811 254.52 955.48438)
(232.2325 254.52 924.04401)
(180.8858 254.52 885.72302)
(134.86099 254.52 841.15039)
(852.84131 254.52 145.8253)
(895.91571 254.52 193.2551)
(568.9386 254.52 9.1049967)
(631.82727 254.52 21.35256)
(692.63348 254.52 41.541611)
(750.35883 254.52 69.340652)
(804.0553 254.52 104.2932)
(721.94189 254.52 955.48438)
(662.55408 254.52 979.52789)
(600.57928 254.52 995.7796)
(915.08612 254.52 791.05829)
(875.13898 254.52 841.15039)
(829.1142 254.52 885.72302)
(777.7674 254.52 924.04401)
(1002.69 254.52 553.01147)
(992.46393 254.52 616.2605)
(974.23419 254.52 677.6825)
(948.29962 254.52 736.2691)
(932.57141 254.52 245.8037)
(962.2063 254.52 302.60831)
(984.33392 254.52 362.73621)
(998.59088 254.52 425.20001)
(1004.743 254.52 488.97421)
(535.85382 1227.75 1002)
(529 1222.951 1002)
(536.54358 1225.726 1002)
(529.76379 1221.083 1002)
(521.41699 1219.415 1002)
(521.9303 1217.474 1002)
(513.33508 1217.249 1002)
(513.59302 1215.264 1002)
(505 1216.52 1002)
(505 1214.52 1002)
(496.66489 1217.249 1002)
(496.40701 1215.264 1002)
(488.58301 1219.415 1002)
(488.0697 1217.474 1002)
(481 1222.951 1002)
(480.23621 1221.083 1002)
(474.14621 1227.75 1002)
(473.45639 1225.726 1002)
(472.9649 1514.52 1003.973)
(409.42068 1514.52 995.7796)
(505 1514.52 1005)
(537.0351 1514.52 1003.973)
(600.57928 1514.52 995.7796)
(347.44589 1514.52 979.52789)
(288.05811 1514.52 955.48438)
(232.2325 1514.52 924.04401)
(180.8858 1514.52 885.72302)
(134.86099 1514.52 841.15039)
(94.913872 1514.52 791.05829)
(61.70034 1514.52 736.2691)
(35.7658 1514.52 677.6825)
(17.536039 1514.52 616.2605)
(7.3104501 1514.52 553.01147)
(5.2568908 1514.52 488.97421)
(11.4091 1514.52 425.20001)
(25.666059 1514.52 362.73621)
(47.79369 1514.52 302.60831)
(77.428612 1514.52 245.8037)
(114.0842 1514.52 193.2551)
(157.15871 1514.52 145.8253)
(205.9447 1514.52 104.2932)
(259.6412 1514.52 69.340652)
(317.36649 1514.52 41.541611)
(378.1727 1514.52 21.35256)
(441.0614 1514.52 9.1049967)
(505 1514.52 4.9999952)
(568.9386 1514.52 9.1049967)
(631.82727 1514.52 21.35256)
(692.63348 1514.52 41.541611)
(750.35883 1514.52 69.340652)
(804.0553 1514.52 104.2932)
(852.84131 1514.52 145.8253)
(895.91571 1514.52 193.2551)
(932.57141 1514.52 245.8037)
(962.2063 1514.52 302.60831)
(984.33392 1514.52 362.73621)
(998.59088 1514.52 425.20001)
(1004.743 1514.52 488.97421)
(1002.69 1514.52 553.01147)
(992.46393 1514.52 616.2605)
(974.23419 1514.52 677.6825)
(948.29962 1514.52 736.2691)
(915.08612 1514.52 791.05829)
(875.13898 1514.52 841.15039)
(829.1142 1514.52 885.72302)
(777.7674 1514.52 924.04401)
(721.94189 1514.52 955.48438)
(662.55408 1514.52 979.52789)
(474.14621 1301.29 1002)
(481 1306.089 1002)
(473.45639 1303.314 1002)
(480.23621 1307.957 1002)
(488.58301 1309.625 1002)
(488.0697 1311.566 1002)
(496.66489 1311.791 1002)
(496.40701 1313.776 1002)
(505 1312.52 1002)
(505 1314.52 1002)
(513.33508 1311.791 1002)
(513.59302 1313.776 1002)
(521.41699 1309.625 1002)
(521.9303 1311.566 1002)
(529 1306.089 1002)
(529.76379 1307.957 1002)
(535.85382 1301.29 1002)
(536.54358 1303.314 1002)
(455 1264.52 1255)
(455.75961 1273.202 1255)
(458.01541 1281.621 1255)
(461.6987 1289.52 1255)
(466.69781 1296.6591 1255)
(472.8606 1302.822 1255)
(480 1307.821 1255)
(487.89899 1311.505 1255)
(496.3176 1313.76 1255)
(505 1314.52 1255)
(513.68237 1313.76 1255)
(522.10101 1311.505 1255)
(530 1307.821 1255)
(537.1394 1302.822 1255)
(543.30219 1296.6591 1255)
(548.30127 1289.52 1255)
(551.98462 1281.621 1255)
(554.24042 1273.202 1255)
(555 1264.52 1255)
(554.24042 1255.838 1255)
(551.98462 1247.4189 1255)
(548.30127 1239.52 1255)
(543.30219 1232.381 1255)
(537.1394 1226.218 1255)
(530 1221.219 1255)
(522.10101 1217.535 1255)
(513.68237 1215.28 1255)
(505 1214.52 1255)
(496.3176 1215.28 1255)
(487.89899 1217.535 1255)
(480 1221.219 1255)
(472.8606 1226.218 1255)
(466.69781 1232.381 1255)
(461.6987 1239.52 1255)
(458.01541 1247.4189 1255)
(455.75961 1255.838 1255)
(468.22989 1233.666 1255)
(463.43079 1240.52 1255)
(474.14621 1227.75 1255)
(481 1222.951 1255)
(488.58301 1219.415 1255)
(496.66489 1217.249 1255)
(505 1216.52 1255)
(513.33508 1217.249 1255)
(521.41699 1219.415 1255)
(529 1222.951 1255)
(535.85382 1227.75 1255)
(541.77008 1233.666 1255)
(546.56921 1240.52 1255)
(550.10522 1248.103 1255)
(552.27081 1256.1851 1255)
(553 1264.52 1255)
(552.27081 1272.855 1255)
(550.10522 1280.937 1255)
(546.56921 1288.52 1255)
(541.77008 1295.374 1255)
(535.85382 1301.29 1255)
(529 1306.089 1255)
(521.41699 1309.625 1255)
(513.33508 1311.791 1255)
(505 1312.52 1255)
(496.66489 1311.791 1255)
(488.58301 1309.625 1255)
(481 1306.089 1255)
(474.14621 1301.29 1255)
(468.22989 1295.374 1255)
(463.43079 1288.52 1255)
(459.89481 1280.937 1255)
(457.72919 1272.855 1255)
(457 1264.52 1255)
(457.72919 1256.1851 1255)
(459.89481 1248.103 1255)
(496.66489 256.51999 552.27081)
(488.58301 256.51999 550.10522)
(505 256.51999 553)
(513.33508 256.51999 552.27081)
(488.58301 256.51999 459.89481)
(496.66489 256.51999 457.72919)
(481 256.51999 463.43079)
(474.14621 256.51999 468.22989)
(474.14621 256.51999 541.77008)
(468.22989 256.51999 535.85382)
(481 256.51999 546.56921)
(459.89481 256.51999 521.41699)
(457.72919 256.51999 513.33508)
(463.43079 256.51999 529)
(457.72919 256.51999 496.66489)
(459.89481 256.51999 488.58301)
(457 256.51999 505)
(468.22989 256.51999 474.14621)
(463.43079 256.51999 481)
(513.33508 256.51999 457.72919)
(521.41699 256.51999 459.89481)
(505 256.51999 457)
(535.85382 256.51999 468.22989)
(541.77008 256.51999 474.14621)
(529 256.51999 463.43079)
(550.10522 256.51999 488.58301)
(552.27081 256.51999 496.66489)
(546.56921 256.51999 481)
(521.41699 256.51999 550.10522)
(529 256.51999 546.56921)
(535.85382 256.51999 541.77008)
(552.27081 256.51999 513.33508)
(550.10522 256.51999 521.41699)
(553 256.51999 505)
(541.77008 256.51999 535.85382)
(546.56921 256.51999 529)
(505 4.519999 457)
(513.33508 4.519999 457.72919)
(521.41699 4.519999 459.89481)
(529 4.519999 463.43079)
(535.85382 4.519999 468.22989)
(541.77008 4.519999 474.14621)
(546.56921 4.519999 481)
(550.10522 4.519999 488.58301)
(552.27081 4.519999 496.66489)
(553 4.519999 505)
(552.27081 4.519999 513.33508)
(550.10522 4.519999 521.41699)
(546.56921 4.519999 529)
(541.77008 4.519999 535.85382)
(535.85382 4.519999 541.77008)
(529 4.519999 546.56921)
(521.41699 4.519999 550.10522)
(513.33508 4.519999 552.27081)
(505 4.519999 553)
(496.66489 4.519999 552.27081)
(488.58301 4.519999 550.10522)
(481 4.519999 546.56921)
(474.14621 4.519999 541.77008)
(468.22989 4.519999 535.85382)
(463.43079 4.519999 529)
(459.89481 4.519999 521.41699)
(457.72919 4.519999 513.33508)
(457 4.519999 505)
(457.72919 4.519999 496.66489)
(459.89481 4.519999 488.58301)
(463.43079 4.519999 481)
(468.22989 4.519999 474.14621)
(474.14621 4.519999 468.22989)
(481 4.519999 463.43079)
(488.58301 4.519999 459.89481)
(496.66489 4.519999 457.72919)
(513.68237 4.519999 554.24042)
(522.10101 4.519999 551.98462)
(530 4.519999 548.30127)
(537.1394 4.519999 543.30219)
(543.30219 4.519999 537.1394)
(548.30127 4.519999 530)
(551.98462 4.519999 522.10101)
(554.24042 4.519999 513.68237)
(555 4.519999 505)
(554.24042 4.519999 496.3176)
(551.98462 4.519999 487.89899)
(548.30127 4.519999 480)
(543.30219 4.519999 472.8606)
(537.1394 4.519999 466.69781)
(530 4.519999 461.6987)
(522.10101 4.519999 458.01541)
(513.68237 4.519999 455.75961)
(505 4.519999 455)
(496.3176 4.519999 455.75961)
(487.89899 4.519999 458.01541)
(480 4.519999 461.6987)
(472.8606 4.519999 466.69781)
(466.69781 4.519999 472.8606)
(461.6987 4.519999 480)
(458.01541 4.519999 487.89899)
(455.75961 4.519999 496.3176)
(455 4.519999 505)
(455.75961 4.519999 513.68237)
(458.01541 4.519999 522.10101)
(461.6987 4.519999 530)
(466.69781 4.519999 537.1394)
(472.8606 4.519999 543.30219)
(480 4.519999 548.30127)
(487.89899 4.519999 551.98462)
(496.3176 4.519999 554.24042)
(505 4.519999 555)
(529.76379 1221.083 1002.384)
(521.9303 1217.474 1002.712)
(529.76379 1307.957 1002.384)
(521.9303 1311.566 1002.712)
(513.59302 1313.776 1002.926)
(505 1512.52 1003)
(570.00201 1512.52 998.7395)
(505 1314.52 1003)
(439.99789 1512.52 998.7395)
(496.40701 1313.776 1002.926)
(488.0697 1311.566 1002.712)
(480.23621 1307.957 1002.384)
(480.23621 1221.083 1002.384)
(488.0697 1217.474 1002.712)
(496.40701 1215.264 1002.926)
(505 256.51999 1003)
(439.99789 256.51999 998.7395)
(505 1214.52 1003)
(570.00201 256.51999 998.7395)
(513.59302 1215.264 1002.926)
(376.10809 1512.52 986.03113)
(376.10809 256.51999 986.03113)
(314.42371 1512.52 965.09198)
(314.42371 256.51999 965.09198)
(256 1512.52 936.28058)
(256 256.51999 936.28058)
(201.83681 1512.52 900.0899)
(201.83681 256.51999 900.0899)
(152.86079 1512.52 857.13922)
(152.86079 256.51999 857.13922)
(109.91 1512.52 808.16321)
(109.91 256.51999 808.16321)
(73.719353 1512.52 754)
(73.719353 256.51999 754)
(44.90799 1512.52 695.57629)
(44.90799 256.51999 695.57629)
(23.968941 1512.52 633.89191)
(23.968941 256.51999 633.89191)
(11.26045 1512.52 570.00201)
(11.26045 256.51999 570.00201)
(6.999999 1512.52 505)
(6.999999 256.51999 505)
(11.26045 1512.52 439.99789)
(11.26045 256.51999 439.99789)
(23.968941 1512.52 376.10809)
(23.968941 256.51999 376.10809)
(44.90799 1512.52 314.42371)
(44.90799 256.51999 314.42371)
(73.719353 1512.52 256)
(73.719353 256.51999 256)
(109.91 1512.52 201.83681)
(109.91 256.51999 201.83681)
(152.86079 1512.52 152.86079)
(152.86079 256.51999 152.86079)
(201.83681 1512.52 109.91)
(201.83681 256.51999 109.91)
(256 1512.52 73.719353)
(256 256.51999 73.719353)
(314.42371 1512.52 44.90799)
(314.42371 256.51999 44.90799)
(376.10809 1512.52 23.968941)
(376.10809 256.51999 23.968941)
(439.99789 1512.52 11.26045)
(439.99789 256.51999 11.26045)
(505 1512.52 6.999999)
(505 256.51999 6.999999)
(570.00201 1512.52 11.26045)
(570.00201 256.51999 11.26045)
(633.89191 1512.52 23.968941)
(633.89191 256.51999 23.968941)
(695.57629 1512.52 44.90799)
(695.57629 256.51999 44.90799)
(754 1512.52 73.719353)
(754 256.51999 73.719353)
(808.16321 1512.52 109.91)
(808.16321 256.51999 109.91)
(857.13922 1512.52 152.86079)
(857.13922 256.51999 152.86079)
(900.0899 1512.52 201.83681)
(900.0899 256.51999 201.83681)
(936.28058 1512.52 256)
(936.28058 256.51999 256)
(965.09198 1512.52 314.42371)
(965.09198 256.51999 314.42371)
(986.03113 1512.52 376.10809)
(986.03113 256.51999 376.10809)
(998.7395 1512.52 439.99789)
(998.7395 256.51999 439.99789)
(1003 1512.52 505)
(1003 256.51999 505)
(998.7395 1512.52 570.00201)
(998.7395 256.51999 570.00201)
(986.03113 1512.52 633.89191)
(986.03113 256.51999 633.89191)
(965.09198 1512.52 695.57629)
(965.09198 256.51999 695.57629)
(936.28058 1512.52 754)
(936.28058 256.51999 754)
(900.0899 1512.52 808.16321)
(900.0899 256.51999 808.16321)
(857.13922 1512.52 857.13922)
(857.13922 256.51999 857.13922)
(808.16321 1512.52 900.0899)
(808.16321 256.51999 900.0899)
(754 1512.52 936.28058)
(754 256.51999 936.28058)
(695.57629 1512.52 965.09198)
(695.57629 256.51999 965.09198)
(633.89191 1512.52 986.03113)
(633.89191 256.51999 986.03113)
)

// edges

460
(
(0 1)
(2 3)
(4 5)
(5 6)
(6 7)
(1 8)
(8 4)
(9 10)
(10 11)
(11 12)
(12 13)
(13 14)
(14 15)
(15 2)
(3 16)
(17 18)
(18 19)
(19 20)
(20 21)
(21 22)
(22 23)
(23 24)
(25 26)
(26 27)
(27 28)
(28 29)
(29 30)
(30 31)
(31 32)
(32 33)
(24 25)
(7 9)
(34 35)
(36 37)
(37 38)
(39 40)
(40 41)
(41 42)
(42 36)
(43 44)
(44 34)
(45 46)
(46 47)
(47 39)
(48 49)
(49 50)
(50 51)
(51 45)
(52 53)
(53 54)
(54 55)
(55 48)
(35 56)
(56 57)
(57 58)
(58 59)
(59 60)
(60 52)
(61 62)
(38 63)
(63 64)
(64 65)
(65 66)
(66 67)
(67 61)
(68 69)
(69 70)
(70 43)
(71 72)
(72 73)
(73 74)
(74 68)
(75 76)
(76 77)
(77 78)
(78 71)
(62 79)
(79 80)
(80 81)
(81 82)
(82 83)
(83 75)
(84 0)
(85 84)
(86 87)
(88 85)
(87 89)
(90 88)
(89 91)
(92 90)
(91 93)
(94 92)
(93 95)
(96 94)
(95 97)
(98 96)
(97 99)
(100 98)
(99 101)
(33 100)
(102 103)
(104 102)
(105 104)
(106 105)
(103 107)
(107 108)
(108 109)
(109 110)
(110 111)
(111 112)
(112 113)
(113 114)
(114 115)
(115 116)
(116 117)
(117 118)
(118 119)
(119 120)
(120 121)
(121 122)
(122 123)
(123 124)
(124 125)
(125 126)
(126 127)
(127 128)
(128 129)
(129 130)
(130 131)
(131 132)
(132 133)
(133 134)
(134 135)
(135 136)
(136 137)
(137 138)
(138 139)
(139 140)
(140 141)
(141 142)
(142 143)
(143 144)
(144 145)
(145 146)
(146 147)
(147 148)
(148 149)
(149 150)
(150 151)
(151 106)
(152 17)
(153 152)
(154 155)
(156 153)
(155 157)
(158 156)
(157 159)
(160 158)
(159 161)
(162 160)
(161 163)
(164 162)
(163 165)
(166 164)
(165 167)
(168 166)
(167 169)
(16 168)
(170 171)
(172 173)
(171 172)
(173 174)
(175 176)
(174 175)
(177 178)
(176 177)
(179 180)
(178 179)
(180 181)
(181 182)
(182 183)
(183 184)
(184 185)
(185 186)
(186 187)
(187 188)
(188 189)
(189 190)
(190 191)
(191 192)
(192 193)
(194 195)
(193 194)
(196 197)
(195 196)
(198 199)
(197 198)
(199 200)
(200 201)
(201 202)
(202 203)
(203 204)
(204 205)
(205 170)
(206 207)
(208 206)
(209 208)
(210 209)
(211 210)
(212 211)
(213 212)
(214 213)
(215 214)
(216 215)
(217 216)
(218 217)
(219 218)
(220 219)
(221 220)
(222 221)
(223 222)
(224 223)
(225 224)
(226 225)
(227 226)
(228 227)
(229 228)
(230 229)
(231 230)
(232 231)
(233 232)
(234 233)
(235 234)
(236 235)
(237 236)
(238 237)
(239 238)
(240 239)
(241 240)
(207 241)
(242 243)
(244 242)
(245 244)
(246 247)
(248 246)
(249 248)
(250 251)
(252 250)
(243 252)
(253 254)
(255 253)
(251 255)
(256 257)
(258 256)
(254 258)
(259 249)
(260 259)
(257 260)
(261 262)
(263 261)
(247 263)
(264 265)
(266 264)
(262 266)
(267 268)
(269 267)
(265 269)
(270 245)
(271 270)
(272 271)
(273 274)
(275 273)
(268 275)
(276 272)
(277 276)
(274 277)
(278 279)
(279 280)
(280 281)
(281 282)
(282 283)
(283 284)
(284 285)
(285 286)
(286 287)
(287 288)
(288 289)
(289 290)
(290 291)
(291 292)
(292 293)
(293 294)
(294 295)
(295 296)
(296 297)
(297 298)
(298 299)
(299 300)
(300 301)
(301 302)
(302 303)
(303 304)
(304 305)
(305 306)
(306 307)
(307 308)
(308 309)
(309 310)
(310 311)
(311 312)
(312 313)
(313 278)
(314 315)
(315 316)
(316 317)
(317 318)
(318 319)
(319 320)
(320 321)
(321 322)
(322 323)
(323 324)
(324 325)
(325 326)
(326 327)
(327 328)
(328 329)
(329 330)
(330 331)
(331 332)
(332 333)
(333 334)
(334 335)
(335 336)
(336 337)
(337 338)
(338 339)
(339 340)
(340 341)
(341 342)
(342 343)
(343 344)
(344 345)
(345 346)
(346 347)
(347 348)
(348 349)
(349 314)
(350 86)
(351 350)
(169 352)
(352 353)
(353 354)
(355 356)
(354 357)
(358 355)
(357 359)
(359 360)
(361 154)
(360 361)
(101 362)
(362 363)
(363 364)
(365 366)
(364 367)
(368 365)
(367 369)
(369 351)
(370 358)
(366 371)
(372 370)
(371 373)
(374 372)
(373 375)
(376 374)
(375 377)
(378 376)
(377 379)
(380 378)
(379 381)
(382 380)
(381 383)
(384 382)
(383 385)
(386 384)
(385 387)
(388 386)
(387 389)
(390 388)
(389 391)
(392 390)
(391 393)
(394 392)
(393 395)
(396 394)
(395 397)
(398 396)
(397 399)
(400 398)
(399 401)
(402 400)
(401 403)
(404 402)
(403 405)
(406 404)
(405 407)
(408 406)
(407 409)
(410 408)
(409 411)
(412 410)
(411 413)
(414 412)
(413 415)
(416 414)
(415 417)
(418 416)
(417 419)
(420 418)
(419 421)
(422 420)
(421 423)
(424 422)
(423 425)
(426 424)
(425 427)
(428 426)
(427 429)
(430 428)
(429 431)
(432 430)
(431 433)
(434 432)
(433 435)
(436 434)
(435 437)
(438 436)
(437 439)
(440 438)
(439 441)
(442 440)
(441 443)
(444 442)
(443 445)
(446 444)
(445 447)
(448 446)
(447 449)
(450 448)
(449 451)
(452 450)
(451 453)
(454 452)
(453 455)
(456 454)
(455 457)
(458 456)
(457 459)
(356 458)
(459 368)
)

// concaveStart mixedStart nonFeatureStart
0 0 0
// internalStart flatStart openStart multipleStart
348 460 460 460
// normals

916
(
(-0.068528597 0 -0.99764915)
(-0.71374557 0.70040507 0)
(-0.082412543 -0.0026016781 -0.9965949)
(-0.8191572 -0.57356907 -0)
(-0.090004005 0.0004172382 -0.99594132)
(-0.92389518 0.38264566 0)
(-0.092944786 0.00035762646 -0.9956712)
(-0.95369901 0.30076269 0)
(-0.095726679 0.00030499027 -0.99540761)
(-0.97629077 0.21646325 0)
(-0.07965529 0.00065849545 -0.99682225)
(-0.8191572 0.57356907 0)
(-0.08639963 0.00049644669 -0.99626044)
(-0.88704179 0.46168915 0)
(-0.13982357 0.0018339918 -0.99017474)
(-0.9990526 0.043519005 0)
(-0.10746359 -0.00041607813 -0.99420893)
(-0.99905056 -0.043565797 -0)
(-0.10115937 -0.0008657011 -0.99486986)
(-0.9914535 -0.13046054 -0)
(-0.09876225 -0.0010450677 -0.99511051)
(-0.97627038 -0.21655516 -0)
(-0.095991055 -0.0012667763 -0.99538139)
(-0.95366242 -0.30087868 -0)
(-0.092760735 -0.0015472371 -0.99568723)
(-0.92389992 -0.38263422 -0)
(-0.089039916 -0.00190198 -0.99602624)
(-0.88705785 -0.46165828 -0)
(-0.068528597 -0 -0.99764915)
(-0.71373755 -0.70041325 0)
(0.068528597 0 -0.99764915)
(0.71373755 -0.70041325 0)
(0.082412954 -0.002601601 -0.99659487)
(0.81915892 -0.57356662 0)
(0.089025586 -0.0019034571 -0.99602752)
(0.88706874 -0.46163737 0)
(0.092780212 -0.0015454975 -0.99568541)
(0.92390185 -0.38262956 0)
(0.096034074 -0.00126299 -0.99537725)
(0.95365132 -0.30091387 0)
(0.09870072 -0.0010496334 -0.99511661)
(0.97626316 -0.2165877 0)
(0.10124585 -0.00085919073 -0.99486107)
(0.99143825 -0.13057643 0)
(0.10163154 0.00020190978 -0.99482209)
(0.99904137 0.043775949 -0)
(0.097063461 0.00028101022 -0.99527815)
(0.99142364 0.13068726 0)
(0.096213794 0.00029624695 -0.99536065)
(0.97633349 0.21627048 -0)
(0.092600317 0.0003645987 -0.99570329)
(0.95376102 0.30056599 0)
(0.09018099 0.00041364005 -0.99592531)
(0.92381815 0.38283158 -0)
(0.08623867 0.0005003075 -0.99627438)
(0.88696773 0.4618314 0)
(0.079655766 0.00065847659 -0.99682221)
(0.81915892 0.57356662 0)
(0.068528597 0 -0.99764915)
(0.71374557 0.70040507 0)
(0.10728582 -0.00042837607 -0.99422813)
(0.99904653 -0.043658054 0)
(-0.096739277 0.00028683271 -0.99530972)
(-0.99145806 0.13042592 0)
(0 -1 0)
(-0.12788178 -4.0129178e-06 0.99178942)
(0 -1 0)
(-0.19115847 0 -0.98155919)
(0 -1 -0)
(-0.064070332 0 -0.99794539)
(0 -1 0)
(-0.64822822 0 -0.7614461)
(0 -1 0)
(-0.54553485 0 -0.83808814)
(0 -1 0)
(-0.43388389 0 -0.9009688)
(0 -1 0)
(-0.31510817 0 -0.94905576)
(0 -1 0)
(0.032041428 -0.00020033295 0.99948652)
(0 -1 0)
(-0.032041429 -5.0303261e-05 0.99948654)
(0 -1 0)
(-0.88659935 0 -0.4625382)
(0 -1 0)
(-0.82017256 0 -0.57211622)
(0 -1 0)
(-0.74027781 0 -0.6723011)
(-0 -1 0)
(-0.99948621 0 0.032051717)
(0 -1 0)
(-0.99537913 0 -0.096022846)
(0 -1 0)
(-0.9749279 0 -0.22252099)
(0 -1 0)
(-0.93846838 0 -0.34536516)
(0 -1 0)
(-0.85514272 0 0.51839263)
(0 -1 0)
(-0.9144127 0 0.40478316)
(0 -1 0)
(-0.9586677 0 0.28452809)
(0 -1 0)
(-0.98718184 0 0.15959956)
(0 -1 -0)
(-0.25365465 0 0.96729485)
(0 -1 0)
(-0.37526791 0 0.92691639)
(0 -1 0)
(-0.49071722 0 0.87131889)
(0 -1 0)
(-0.59811002 0 0.801414)
(0 -1 0)
(-0.69568326 0 0.71834866)
(0 -1 0)
(-0.78183147 0 0.62348982)
(0 -1 0)
(0.74027864 0 -0.67230019)
(0 -1 0)
(0.064070332 0 -0.99794539)
(0 -1 0)
(0.19115856 0 -0.98155917)
(0 -1 0)
(0.31510817 0 -0.94905576)
(0 -1 0)
(0.43388351 0 -0.90096898)
(0 -1 0)
(0.54553507 0 -0.838088)
(0 -1 0)
(0.64822811 0 -0.7614462)
(0 -1 0)
(0.37526775 0 0.92691646)
(0 -1 0)
(0.25365465 0 0.96729485)
(0 -1 0)
(0.12788182 -0.00051191935 0.99178928)
(0 -1 0)
(0.78183129 0 0.62349004)
(0 -1 0)
(0.6956835 0 0.71834843)
(0 -1 0)
(0.59810923 0 0.8014146)
(0 -1 0)
(0.49071794 0 0.87131849)
(0 -1 0)
(0.98718065 0 0.15960693)
(0 -1 0)
(0.95866781 0 0.28452773)
(0 -1 0)
(0.91441253 0 0.40478356)
(0 -1 0)
(0.85514293 0 0.51839229)
(0 -1 0)
(0.82017172 0 -0.57211742)
(0 -1 0)
(0.88659957 0 -0.46253778)
(0 -1 0)
(0.93846841 0 -0.34536508)
(0 -1 0)
(0.97492791 0 -0.22252096)
(0 -1 0)
(0.99537929 0 -0.096021158)
(0 -1 0)
(0.9994865 0 0.032042662)
(0 0 -1)
(-0.64999356 0.75993971 0)
(0 -0 -1)
(-0.57356466 0.81916029 0)
(0 0 -1)
(0.56502736 -0.82507217 0)
(0 -0 -1)
(-0.42261788 0.90630796 0)
(0 0 -1)
(0.41844148 -0.90824376 0)
(0 -0 -1)
(-0.25887197 0.96591164 0)
(0 0 -1)
(0.25622125 -0.96661816 0)
(0 -0 -1)
(-0.087129486 0.99619699 0)
(0 0 -1)
(0.086261345 -0.99627254 0)
(-0 -0 -1)
(0.08712917 0.99619702 0)
(0 -0 -1)
(-0.08626165 -0.99627252 0)
(-0 0 -1)
(0.25887288 0.9659114 0)
(0 -0 -1)
(-0.25622037 -0.96661839 0)
(-0 0 -1)
(0.42261788 0.90630796 0)
(0 -0 -1)
(-0.41844148 -0.90824376 0)
(-0 0 -1)
(0.57356638 0.81915909 0)
(0 -0 -1)
(-0.56502563 -0.82507335 0)
(-0 0 -1)
(0.6499582 0.75996561 -0.00257157)
(-0.12788166 0.0013422396 0.99178853)
(0 1 0)
(-0.032041416 0.00089412702 0.99948614)
(0 1 0)
(0.032041425 0.000487252 0.99948642)
(0 1 0)
(0.12788184 2.3488539e-05 0.99178941)
(0 1 0)
(-0.25365465 0 0.96729485)
(0 1 0)
(-0.37526791 0 0.92691639)
(-0 1 0)
(-0.49071722 0 0.87131889)
(0 1 0)
(-0.59811002 0 0.801414)
(0 1 0)
(-0.69568326 0 0.71834866)
(-0 1 0)
(-0.78183147 0 0.62348982)
(0 1 0)
(-0.85514272 0 0.51839263)
(0 1 0)
(-0.9144127 0 0.40478316)
(-0 1 0)
(-0.9586677 0 0.28452809)
(0 1 0)
(-0.98718184 0 0.15959956)
(0 1 0)
(-0.99948621 0 0.032051717)
(0 1 0)
(-0.99537913 0 -0.096022846)
(0 1 0)
(-0.9749279 0 -0.22252099)
(0 1 0)
(-0.93846838 0 -0.34536516)
(0 1 -0)
(-0.88659935 0 -0.4625382)
(0 1 0)
(-0.82017256 0 -0.57211622)
(0 1 0)
(-0.74027781 0 -0.6723011)
(0 1 -0)
(-0.64822822 0 -0.7614461)
(0 1 0)
(-0.54553485 0 -0.83808814)
(0 1 0)
(-0.43388389 0 -0.9009688)
(0 1 -0)
(-0.31510817 0 -0.94905576)
(0 1 0)
(-0.19115847 0 -0.98155919)
(0 1 0)
(-0.064070332 0 -0.99794539)
(0 1 -0)
(0.064070332 0 -0.99794539)
(0 1 0)
(0.19115856 0 -0.98155917)
(0 1 0)
(0.31510817 0 -0.94905576)
(0 1 0)
(0.43388351 0 -0.90096898)
(0 1 0)
(0.54553507 0 -0.838088)
(0 1 0)
(0.64822811 0 -0.7614462)
(0 1 0)
(0.74027864 0 -0.67230019)
(0 1 0)
(0.82017172 0 -0.57211742)
(0 1 0)
(0.88659957 0 -0.46253778)
(0 1 0)
(0.93846841 0 -0.34536508)
(0 1 0)
(0.97492791 0 -0.22252096)
(0 1 0)
(0.99537929 0 -0.096021158)
(0 1 0)
(0.9994865 -0 0.032042662)
(-0 1 0)
(0.98718065 -0 0.15960693)
(0 1 0)
(0.95866781 -0 0.28452773)
(0 1 0)
(0.91441253 -0 0.40478356)
(0 1 0)
(0.85514293 -0 0.51839229)
(0 1 0)
(0.78183129 -0 0.62349004)
(0 1 0)
(0.6956835 -0 0.71834843)
(0 1 0)
(0.59810923 -0 0.8014146)
(0 1 0)
(0.49071794 -0 0.87131849)
(0 1 0)
(0.37526775 -0 0.92691646)
(0 1 0)
(0.25365465 -0 0.96729485)
(0 1 0)
(-0 0 -1)
(0.65003801 -0.75990169 0)
(0 0 -1)
(0.57356638 -0.81915909 0)
(-0 0 -1)
(-0.56503575 0.82506643 0)
(0 0 -1)
(0.42261788 -0.90630796 0)
(-0 0 -1)
(-0.41844148 0.90824376 0)
(0 0 -1)
(0.25887288 -0.9659114 0)
(-0 0 -1)
(-0.25622037 0.96661839 0)
(0 0 -1)
(0.08712917 -0.99619702 0)
(0 0 -1)
(-0.08626165 0.99627252 0)
(0 0 -1)
(-0.087129486 -0.99619699 0)
(0 0 -1)
(0.086261345 0.99627254 0)
(0 0 -1)
(-0.25887197 -0.96591164 0)
(0 0 -1)
(0.25622125 0.96661816 0)
(0 0 -1)
(-0.42261788 -0.90630796 0)
(0 0 -1)
(0.41844148 0.90824376 0)
(0 0 -1)
(-0.57356466 -0.81916029 0)
(0 0 -1)
(0.56503748 0.82506524 -0)
(0 0 -1)
(-0.65006908 -0.75987078 -0.0025669164)
(-0.99619417 0.087159812 0.00058309442)
(0 0 1)
(-0.90631187 0.42260893 0.00070203445)
(0 -0 1)
(-0.9659273 0.25881356 7.0166724e-07)
(0 -0 1)
(-0.81913551 0.57360005 2.084281e-06)
(0 -0 1)
(-0.57357326 0.81915427 1.7414796e-06)
(0 -0 1)
(-0.70711729 0.70709628 9.3035162e-07)
(0 -0 1)
(-0.25873824 0.96594747 6.8619076e-07)
(0 -0 1)
(-0.42267499 0.90628133 -2.0484482e-06)
(0 -0 1)
(0.087201324 0.99619039 0.00079193754)
(0 0 1)
(-0.087201048 0.99619073 3.4710845e-08)
(0 -0 1)
(0.25873729 0.96594741 0.00078981496)
(-0 0 1)
(0.42267493 0.90628122 0.00050336687)
(-0 0 1)
(0.57357311 0.81915406 0.00071076374)
(-0 0 1)
(0.70711725 0.70709624 0.00031848635)
(-0 0 1)
(0.81913701 0.5735976 0.00058841241)
(-0 0 1)
(0.9063094 0.42261478 8.846384e-05)
(-0 0 1)
(0.9659272 0.25881353 0.00044973232)
(-0 0 1)
(0.99619441 0.087156331 0.0006914097)
(-0 0 1)
(0.99619435 -0.087156326 0.00076855943)
(-0 0 1)
(0.96592794 -0.25880998 0.00078499851)
(0 0 1)
(0.90630661 -0.42262001 0.00080728738)
(0 0 1)
(0.81913694 -0.57359755 0.00072978076)
(0 0 1)
(0.70711729 -0.70709628 5.5821097e-07)
(0 0 1)
(0.42267499 -0.90628133 -2.38414e-06)
(0 0 1)
(0.57357326 -0.81915427 4.5429902e-07)
(0 0 1)
(0.087201352 -0.99619071 3.4710966e-08)
(0 0 1)
(0.25873737 -0.96594771 0)
(0 0 1)
(-0.25873819 -0.96594728 0.00063645347)
(0 0 1)
(-0.087201048 -0.99619073 3.4689433e-08)
(0 0 1)
(-0.42267498 -0.90628132 0.0001749467)
(0 0 1)
(-0.57357319 -0.81915418 0.00047434821)
(0 0 1)
(-0.70711716 -0.70709616 0.00058439074)
(0 0 1)
(-0.81913547 -0.57360003 0.00029065426)
(0 0 1)
(-0.90630937 -0.42261429 0.00069809065)
(0 0 1)
(-0.96592823 -0.25881006 0.00011123107)
(0 0 1)
(-0.99619405 -0.087159801 0.00076364556)
(0 0 1)
(0 0 1)
(0.81915892 0.57356662 -0)
(0 0 1)
(0.70708854 0.70712502 0)
(0 0 1)
(0.57356638 0.81915909 0)
(0 0 1)
(0.42261788 0.90630796 0)
(0 0 1)
(0.25887288 0.9659114 0)
(0 0 1)
(0.08712917 0.99619702 0)
(-0 0 1)
(-0.087129486 0.99619699 0)
(-0 0 1)
(-0.25887197 0.96591164 0)
(-0 0 1)
(-0.42261788 0.90630796 0)
(-0 0 1)
(-0.57356466 0.81916029 0)
(-0 0 1)
(-0.70709216 0.70712134 -0.00027883504)
(-0 0 1)
(-0.8191572 0.57356907 0)
(-0 0 1)
(-0.90630773 0.42261777 -0.00071916439)
(-0 0 1)
(-0.96592514 0.25882061 -0.00071895844)
(-0 0 1)
(-0.99619473 0.087152449 -0.00071823846)
(0 -0 1)
(-0.99619473 -0.087152449 -0.0007181426)
(0 -0 1)
(-0.96592514 -0.25882061 -0.0007191774)
(0 -0 1)
(-0.90630773 -0.42261777 -0.00071897824)
(0 -0 1)
(-0.8191572 -0.57356907 0)
(0 -0 1)
(-0.70709219 -0.70712137 0)
(0 -0 1)
(-0.57356466 -0.81916029 0)
(0 -0 1)
(-0.42261788 -0.90630796 0)
(0 -0 1)
(-0.25887197 -0.96591164 0)
(0 -0 1)
(-0.087129486 -0.99619699 0)
(0 -0 1)
(0.08712917 -0.99619702 0)
(0 0 1)
(0.25887288 -0.9659114 0)
(0 0 1)
(0.42261788 -0.90630796 0)
(0 0 1)
(0.57356638 -0.81915909 0)
(0 0 1)
(0.70708852 -0.70712499 -0.00027864599)
(0 0 1)
(0.81915892 -0.57356662 0)
(0 0 1)
(0.90630913 -0.42261478 -0.00071882346)
(0 0 1)
(0.96592423 -0.25882401 -0.00071920354)
(0 0 1)
(0.99619473 -0.087152449 -0.00071834526)
(0 0 1)
(0.99619473 0.087152449 -0.00071828485)
(0 0 1)
(0.96592423 0.25882401 -0.00071887687)
(0 0 1)
(0.90630913 0.42261478 -0.0007188233)
(0 1 -0)
(0.25882524 0 -0.96592417)
(0 1 -0)
(0.087150888 0 -0.99619512)
(-0 1 0)
(-0.087151205 -0 -0.9961951)
(0 1 0)
(0.25882864 0 0.96592326)
(0 1 0)
(0.42261489 0 0.90630936)
(0 1 0)
(0.57357861 0 0.81915052)
(0 1 -0)
(0.70710313 0 -0.70711043)
(0 1 -0)
(0.57358106 0 -0.81914881)
(0 1 -0)
(0.42261788 0 -0.90630796)
(0 1 -0)
(0.9659235 0 -0.25882773)
(0 1 -0)
(0.90630936 0 -0.42261489)
(0 1 -0)
(0.81915172 0 -0.5735769)
(0 1 0)
(0.96592326 0 0.25882864)
(0 1 0)
(0.99619512 0 0.087150888)
(0 1 -0)
(0.9961951 0 -0.087151205)
(0 1 0)
(0.70710678 0 0.70710678)
(0 1 0)
(0.81915052 0 0.57357861)
(0 1 0)
(0.90630936 0 0.42261489)
(0 1 0)
(-0.25882773 0 0.9659235)
(0 1 0)
(-0.087151205 0 0.9961951)
(0 1 0)
(0.087150888 0 0.99619512)
(0 1 0)
(-0.70711043 0 0.70710313)
(0 1 0)
(-0.5735769 0 0.81915172)
(0 1 0)
(-0.42261489 0 0.90630936)
(0 1 0)
(-0.96592417 0 0.25882524)
(0 1 0)
(-0.90630796 0 0.42261788)
(0 1 0)
(-0.81914881 0 0.57358106)
(-0 1 0)
(-0.25882432 -0 -0.96592441)
(-0 1 0)
(-0.42261788 -0 -0.90630796)
(-0 1 0)
(-0.57357935 -0 -0.81915001)
(-0 1 0)
(-0.96592441 -0 -0.25882432)
(-0 1 0)
(-0.9961951 -0 -0.087151205)
(-0 1 0)
(-0.99619512 0 0.087150888)
(-0 1 0)
(-0.70710678 -0 -0.70710678)
(-0 1 0)
(-0.81915001 -0 -0.57357935)
(-0 1 0)
(-0.90630796 -0 -0.42261788)
(-0.087151205 0 0.9961951)
(0 -1 0)
(-0.25882773 0 0.9659235)
(0 -1 0)
(-0.42261489 0 0.90630936)
(0 -1 0)
(-0.5735769 0 0.81915172)
(0 -1 0)
(-0.70711043 0 0.70710313)
(0 -1 0)
(-0.81914881 0 0.57358106)
(0 -1 0)
(-0.90630796 0 0.42261788)
(0 -1 0)
(-0.96592417 0 0.25882524)
(0 -1 0)
(-0.99619512 0 0.087150888)
(0 -1 0)
(-0.9961951 -0 -0.087151205)
(0 -1 0)
(-0.96592441 -0 -0.25882432)
(0 -1 0)
(-0.90630796 -0 -0.42261788)
(0 -1 0)
(-0.81915001 -0 -0.57357935)
(0 -1 0)
(-0.70710678 -0 -0.70710678)
(0 -1 0)
(-0.57357935 -0 -0.81915001)
(0 -1 0)
(-0.42261788 -0 -0.90630796)
(0 -1 0)