/*--------------------------------*- C++ -*----------------------------------*\
  =========                 |
  \\      /  F ield         | OpenFOAM: The Open Source CFD Toolbox
   \\    /   O peration     | Website:  https://openfoam.org
    \\  /    A nd           | Version:  9
     \\/     M anipulation  |
\*---------------------------------------------------------------------------*/
FoamFile
{
    format      ascii;
    class       extendedFeatureEdgeMesh;
    location    "constant/extendedFeatureEdgeMesh";
    object      vessel.extendedFeatureEdgeMesh;
}
// * * * * * * * * * * * * * * * * * * * * * * * * * * * * * * * * * * * * * //

// points

238
(
(622.776 1348.171 1082.157)
(621.31952 1348.198 1098.215)
(622.77612 1348.171 1080.934)
(621.31952 1348.198 1064.875)
(622.77802 148.198 1081.545)
(621.31952 148.198 1064.875)
(621.31952 148.198 1098.215)
(616.98853 1348.198 1114.379)
(616.98853 148.198 1114.379)
(609.91638 1348.198 1129.545)
(609.91638 148.198 1129.545)
(600.3183 1348.198 1143.252)
(600.3183 148.198 1143.252)
(588.4856 1348.198 1155.085)
(588.4856 148.198 1155.085)
(574.77802 1348.198 1164.683)
(574.77802 148.198 1164.683)
(559.61188 1348.198 1171.755)
(559.61188 148.198 1171.755)
(543.44818 1348.198 1176.0861)
(543.44818 148.198 1176.0861)
(526.77802 1348.198 1177.545)
(526.77802 148.198 1177.545)
(510.10779 1348.198 1176.0861)
(510.10779 148.198 1176.0861)
(493.94409 1348.198 1171.755)
(493.94409 148.198 1171.755)
(478.77802 1348.198 1164.683)
(478.77802 148.198 1164.683)
(465.0704 1348.198 1155.085)
(465.0704 148.198 1155.085)
(453.2377 1348.198 1143.252)
(453.2377 148.198 1143.252)
(443.63959 1348.198 1129.545)
(443.63959 148.198 1129.545)
(436.5675 1348.198 1114.379)
(436.5675 148.198 1114.379)
(432.23651 1348.198 1098.215)
(432.23651 148.198 1098.215)
(430.77802 1348.198 1081.545)
(430.77802 148.198 1081.545)
(432.23651 1348.198 1064.875)
(432.23651 148.198 1064.875)
(436.5675 1348.198 1048.7111)
(436.5675 148.198 1048.7111)
(443.63959 1348.198 1033.545)
(443.63959 148.198 1033.545)
(453.2377 1348.198 1019.837)
(453.2377 148.198 1019.837)
(465.0704 1348.198 1008.005)
(465.0704 148.198 1008.005)
(478.77802 1348.198 998.40637)
(478.77802 148.198 998.40637)
(493.94409 1348.198 991.33441)
(493.94409 148.198 991.33441)
(510.10779 1348.198 987.0033)
(510.10779 148.198 987.0033)
(526.77802 1348.198 985.54492)
(526.77802 148.198 985.54492)
(543.44818 1348.198 987.0033)
(543.44818 148.198 987.0033)
(559.61188 1348.198 991.33441)
(559.61188 148.198 991.33441)
(574.77802 1348.198 998.40637)
(574.77802 148.198 998.40637)
(588.4856 1348.198 1008.005)
(588.4856 148.198 1008.005)
(600.3183 1348.198 1019.837)
(600.3183 148.198 1019.837)
(609.91638 1348.198 1033.545)
(609.91638 148.198 1033.545)
(616.98853 1348.198 1048.7111)
(616.98853 148.198 1048.7111)
(651.77802 1348.092 1080.329)
(651.77802 1347.776 1079.151)
(651.77802 1347.26 1078.045)
(651.77802 1346.5601 1077.045)
(651.77802 1345.698 1076.183)
(651.77802 1344.698 1075.483)
(651.77802 1343.592 1074.967)
(651.77802 1342.4139 1074.651)
(651.77802 1341.198 1074.545)
(651.77802 1339.983 1074.651)
(651.77802 1338.804 1074.967)
(651.77802 1337.698 1075.483)
(651.77802 1336.699 1076.183)
(651.77802 1335.8361 1077.045)
(651.77802 1335.136 1078.045)
(651.77802 1334.62 1079.151)
(651.77802 1334.304 1080.329)
(651.77802 1334.198 1081.545)
(651.77802 1334.304 1082.76)
(651.77802 1334.62 1083.939)
(651.77802 1335.136 1085.045)
(651.77802 1335.8361 1086.0439)
(651.77802 1336.699 1086.907)
(651.77802 1337.698 1087.6071)
(651.77802 1338.804 1088.123)
(651.77802 1339.983 1088.439)
(651.77802 1341.198 1088.545)
(651.77802 1342.4139 1088.439)
(651.77802 1343.592 1088.123)
(651.77802 1344.698 1087.6071)
(651.77802 1345.698 1086.907)
(651.77802 1346.5601 1086.0439)
(651.77802 1347.26 1085.045)
(651.77802 1347.776 1083.939)
(651.77802 1348.092 1082.76)
(651.77802 1348.198 1081.545)
(533.67169 0.69802231 1080.329)
(533.35577 0.69802231 1079.151)
(532.84021 0.69802231 1078.045)
(532.14032 0.69802231 1077.045)
(531.27753 0.69802231 1076.183)
(530.27802 0.69802231 1075.483)
(529.17212 0.69802231 1074.967)
(527.99353 0.69802231 1074.651)
(526.77802 0.69802231 1074.545)
(525.5625 0.69802231 1074.651)
(524.38391 0.69802231 1074.967)
(523.27802 0.69802231 1075.483)
(522.2785 0.69802231 1076.183)
(521.41571 0.69802231 1077.045)
(520.71582 0.69802231 1078.045)
(520.2002 0.69802231 1079.151)
(519.88428 0.69802231 1080.329)
(519.77802 0.69802231 1081.545)
(519.88428 0.69802231 1082.76)
(520.2002 0.69802231 1083.939)
(520.71582 0.69802231 1085.045)
(521.41571 0.69802231 1086.0439)
(522.2785 0.69802231 1086.907)
(523.27802 0.69802231 1087.6071)
(524.38391 0.69802231 1088.123)
(525.5625 0.69802231 1088.439)
(526.77802 0.69802231 1088.545)
(527.99353 0.69802231 1088.439)
(529.17212 0.69802231 1088.123)
(530.27802 0.69802231 1087.6071)
(531.27753 0.69802231 1086.907)
(532.14032 0.69802231 1086.0439)
(532.84021 0.69802231 1085.045)
(533.35577 0.69802231 1083.939)
(533.67169 0.69802231 1082.76)
(533.77802 0.69802231 1081.545)
(622.77032 1334.304 1082.76)
(622.76093 1334.437 1083.3571)
(622.74811 1334.62 1083.939)
(622.73242 1334.854 1084.5031)
(622.71417 1335.136 1085.045)
(622.67249 1335.8361 1086.0439)
(622.62811 1336.699 1086.907)
(622.58643 1337.698 1087.6071)
(622.56812 1338.241 1087.889)
(622.55243 1338.804 1088.123)
(622.53961 1339.386 1088.306)
(622.53021 1339.983 1088.439)
(622.52441 1340.59 1088.5179)
(622.52252 1341.198 1088.545)
(622.52441 1341.807 1088.5179)
(622.53021 1342.4139 1088.439)
(622.53961 1343.012 1088.306)
(622.55243 1343.592 1088.123)
(622.56812 1344.155 1087.889)
(622.58643 1344.698 1087.6071)
(622.62811 1345.698 1086.907)
(622.67249 1346.5601 1086.0439)
(622.71417 1347.26 1085.045)
(622.73242 1347.541 1084.505)
(622.74811 1347.776 1083.939)
(622.76093 1347.96 1083.354)
(622.77032 1348.092 1082.76)
(622.76093 1347.959 1079.731)
(622.74811 1347.776 1079.151)
(622.77032 1348.092 1080.329)
(622.73242 1347.543 1078.588)
(622.71417 1347.26 1078.045)
(622.67249 1346.5601 1077.045)
(622.62811 1345.698 1076.183)
(622.58643 1344.698 1075.483)
(622.56818 1344.158 1075.202)
(622.55243 1343.592 1074.967)
(622.53961 1343.0081 1074.783)
(622.53021 1342.4139 1074.651)
(622.52441 1341.8101 1074.572)
(622.52252 1341.198 1074.545)
(622.52441 1340.5861 1074.572)
(622.53021 1339.983 1074.651)
(622.53949 1339.389 1074.783)
(622.55243 1338.804 1074.967)
(622.56818 1338.238 1075.201)
(622.58643 1337.698 1075.483)
(622.62811 1336.699 1076.183)
(622.67249 1335.8361 1077.045)
(622.71417 1335.136 1078.045)
(622.73242 1334.853 1078.587)
(622.74811 1334.62 1079.151)
(622.76093 1334.437 1079.731)
(622.77032 1334.304 1080.329)
(622.77612 1334.225 1080.9351)
(622.77802 1334.198 1081.545)
(622.77612 1334.225 1082.1541)
(519.8858 25.698009 1082.76)
(520.20148 25.698009 1083.938)
(520.7171 25.698009 1085.0439)
(521.41681 25.698009 1086.043)
(522.27942 25.698009 1086.906)
(523.27869 25.698009 1087.606)
(524.3844 25.698009 1088.121)
(525.56268 25.698009 1088.437)
(526.77802 25.698009 1088.543)
(527.99329 25.698009 1088.437)
(529.17157 25.698009 1088.121)
(530.27728 25.698009 1087.606)
(531.27661 25.698009 1086.906)
(532.13922 25.698009 1086.043)
(532.83893 25.698009 1085.0439)
(533.35449 25.698009 1083.938)
(533.67023 25.698009 1082.76)
(533.77649 25.698009 1081.545)
(533.67023 25.698009 1080.33)
(533.35449 25.698009 1079.151)
(532.83893 25.698009 1078.046)
(532.13922 25.698009 1077.046)
(531.27661 25.698009 1076.184)
(530.27728 25.698009 1075.484)
(529.17157 25.698009 1074.968)
(527.99329 25.698009 1074.653)
(526.77802 25.698009 1074.546)
(525.56268 25.698009 1074.653)
(524.3844 25.698009 1074.968)
(523.27869 25.698009 1075.484)
(522.27942 25.698009 1076.184)
(521.41681 25.698009 1077.046)
(520.7171 25.698009 1078.046)
(520.20148 25.698009 1079.151)
(519.8858 25.698009 1080.33)
(519.77948 25.698009 1081.545)
)

// edges

238
(
(0 1)
(2 3)
(4 5)
(6 4)
(1 7)
(8 6)
(7 9)
(10 8)
(9 11)
(12 10)
(11 13)
(14 12)
(13 15)
(16 14)
(15 17)
(18 16)
(17 19)
(20 18)
(19 21)
(22 20)
(21 23)
(24 22)
(23 25)
(26 24)
(25 27)
(28 26)
(27 29)
(30 28)
(29 31)
(32 30)
(31 33)
(34 32)
(33 35)
(36 34)
(35 37)
(38 36)
(37 39)
(40 38)
(39 41)
(42 40)
(41 43)
(44 42)
(43 45)
(46 44)
(45 47)
(48 46)
(47 49)
(50 48)
(49 51)
(52 50)
(51 53)
(54 52)
(53 55)
(56 54)
(55 57)
(58 56)
(57 59)
(60 58)
(59 61)
(62 60)
(61 63)
(64 62)
(63 65)
(66 64)
(65 67)
(68 66)
(67 69)
(70 68)
(69 71)
(72 70)
(71 3)
(5 72)
(73 74)
(74 75)
(75 76)
(76 77)
(77 78)
(78 79)
(79 80)
(80 81)
(81 82)
(82 83)
(83 84)
(84 85)
(85 86)
(86 87)
(88 89)
(87 88)
(89 90)
(90 91)
(91 92)
(92 93)
(93 94)
(94 95)
(95 96)
(96 97)
(97 98)
(98 99)
(99 100)
(100 101)
(101 102)
(102 103)
(103 104)
(104 105)
(106 107)
(105 106)
(108 73)
(107 108)
(109 110)
(110 111)
(111 112)
(112 113)
(113 114)
(114 115)
(115 116)
(116 117)
(117 118)
(118 119)
(119 120)
(120 121)
(121 122)
(122 123)
(123 124)
(124 125)
(125 126)
(126 127)
(127 128)
(128 129)
(129 130)
(130 131)
(131 132)
(132 133)
(133 134)
(134 135)
(135 136)
(136 137)
(137 138)
(138 139)
(139 140)
(140 141)
(141 142)
(142 143)
(143 144)
(144 109)
(145 146)
(146 147)
(147 148)
(148 149)
(149 150)
(150 151)
(151 152)
(152 153)
(153 154)
(154 155)
(155 156)
(156 157)
(157 158)
(158 159)
(159 160)
(160 161)
(161 162)
(162 163)
(163 164)
(164 165)
(165 166)
(166 167)
(167 168)
(168 169)
(169 170)
(170 171)
(171 0)
(172 173)
(2 174)
(174 172)
(173 175)
(175 176)
(176 177)
(177 178)
(178 179)
(179 180)
(180 181)
(181 182)
(182 183)
(183 184)
(184 185)
(185 186)
(186 187)
(187 188)
(188 189)
(190 191)
(191 192)
(192 193)
(193 194)
(194 195)
(195 196)
(196 197)
(197 198)
(198 199)
(199 200)
(200 201)
(201 145)
(189 190)
(202 203)
(203 204)
(204 205)
(205 206)
(206 207)
(207 208)
(208 209)
(209 210)
(210 211)
(211 212)
(212 213)
(213 214)
(214 215)
(215 216)
(216 217)
(217 218)
(218 219)
(219 220)
(220 221)
(221 222)
(222 223)
(223 224)
(224 225)
(225 226)
(226 227)
(227 228)
(228 229)
(229 230)
(230 231)
(231 232)
(232 233)
(233 234)
(234 235)
(235 236)
(236 237)
(237 202)
)

// concaveStart mixedStart nonFeatureStart
0 0 0
// internalStart flatStart openStart multipleStart
144 238 238 238
// normals

474
(
(0.8501605 0.52097531 0.076235524)
(0.46346012 0.88518951 0.040549366)
(0.46312966 0.88536379 -0.040520157)
(0.84990449 0.52139607 -0.076213423)
(0.99619437 -0.00026758107 -0.087159074)
(0.80699784 -0.58631842 -0.070605885)
(0.99619435 -0 0.087159711)
(0.80699766 -0.58631861 0.070606386)
(0.96592812 -0 0.25881047)
(0 1 0)
(0.96592812 0 0.25881047)
(0.78247957 -0.58631863 0.20965732)
(0.90630517 -0 0.42262387)
(0 1 0)
(0.90630517 0 0.42262387)
(0.73417947 -0.58631969 0.34235905)
(0.81914075 -0 0.57359257)
(0 1 0)
(0.81914075 0 0.57359257)
(0.66357007 -0.58631846 0.46465624)
(0.7071159 -0 0.70709766)
(0 1 0)
(0.7071159 0 0.70709766)
(0.57282076 -0.58631875 0.57280599)
(0.57357127 -0 0.81915566)
(0 1 0)
(0.57357127 0 0.81915566)
(0.46463931 -0.5863177 0.6635826)
(0.42261509 -0 0.90630927)
(0 1 0)
(0.42261509 0 0.90630927)
(0.34235294 -0.58631638 0.73418496)
(0.25881934 -0 0.96592575)
(0 1 0)
(0.25881934 0 0.96592575)
(0.20966452 -0.58631856 0.78247769)
(0.087187401 -0 0.99619193)
(0 1 0)
(0.087187401 0 0.99619193)
(0.070628837 -0.5863183 0.80699592)
(-0.087187085 0 0.99619196)
(0 1 -0)
(-0.087187085 0 0.99619196)
(-0.070628469 -0.58632006 0.80699468)
(-0.25881934 0 0.96592575)
(-0 1 0)
(-0.25881934 0 0.96592575)
(-0.20966477 -0.58631722 0.78247862)
(-0.42261648 0 0.90630862)
(0 1 0)
(-0.42261648 0 0.90630862)
(-0.34235339 -0.58631863 0.73418297)
(-0.57357042 0 0.81915626)
(0 1 0)
(-0.57357042 0 0.81915626)
(-0.46463899 -0.58631679 0.66358363)
(-0.7071159 0 0.70709766)
(-0 1 0)
(-0.7071159 0 0.70709766)
(-0.57282135 -0.5863176 0.57280658)
(-0.81913989 0 0.57359379)
(0 1 0)
(-0.81913989 0 0.57359379)
(-0.66356896 -0.58631917 0.46465694)
(-0.90630657 0 0.42262088)
(0 1 0)
(-0.90630657 0 0.42262088)
(-0.73418094 -0.58631919 0.34235677)
(-0.96592812 0 0.25881047)
(-0 1 0)
(-0.96592812 0 0.25881047)
(-0.78247943 -0.58631882 0.20965728)
(-0.99619435 0 0.087159711)
(0 1 0)
(-0.99619435 0 0.087159711)
(-0.80699778 -0.58631845 0.070606396)
(-0.99619441 0 -0.087159077)
(0 1 0)
(-0.99619441 0 -0.087159077)
(-0.80699788 -0.58631837 -0.070605888)
(-0.96592764 0 -0.25881229)
(0 1 -0)
(-0.96592764 0 -0.25881229)
(-0.78247922 -0.58631856 -0.20965881)
(-0.90630657 0 -0.42262088)
(0 1 0)
(-0.90630657 0 -0.42262088)
(-0.73418201 -0.58631755 -0.34235727)
(-0.81916269 0 -0.57356123)
(0 1 0)
(-0.81916269 0 -0.57356123)
(-0.66358713 -0.58631966 -0.46463036)
(-0.7070849 0 -0.70712867)
(0 1 -0)
(-0.7070849 0 -0.70712867)
(-0.57279626 -0.58631755 -0.57283172)
(-0.57359489 0 -0.81913912)
(0 1 0)
(-0.57359489 0 -0.81913912)
(-0.464658 -0.58631874 -0.66356859)
(-0.42261349 0 -0.90631001)
(0 1 0)
(-0.42261349 0 -0.90631001)
(-0.34235096 -0.58631861 -0.73418411)
(-0.25882274 0 -0.96592483)
(0 1 -0)
(-0.25882274 0 -0.96592483)
(-0.20966759 -0.58631689 -0.78247812)
(-0.087150888 0 -0.99619512)
(0 1 0)
(-0.087150888 0 -0.99619512)
(-0.070599169 -0.58631971 -0.8069975)
(0.087151205 0 -0.9961951)
(0 1 0)
(0.087151205 0 -0.9961951)
(0.070599594 -0.58631705 -0.80699939)
(0.25882274 0 -0.96592483)
(0 1 0)
(0.25882274 0 -0.96592483)
(0.20966707 -0.58631966 -0.78247618)
(0.42261209 0 -0.90631066)
(0 1 0)
(0.42261209 0 -0.90631066)
(0.34235029 -0.58631711 -0.73418562)
(0.57359575 0 -0.81913852)
(0 1 0)
(0.57359575 0 -0.81913852)
(0.46465898 -0.58631807 -0.6635685)
(0.7070849 0 -0.70712867)
(0 1 0)
(0.7070849 0 -0.70712867)
(0.57279553 -0.58631898 -0.57283098)
(0.81916355 0 -0.57356001)
(0 1 0)
(0.81916355 0 -0.57356001)
(0.66358892 -0.58631782 -0.46463013)
(0.90630517 0 -0.42262387)
(0 1 0)
(0.90630517 0 -0.42262387)
(0.73418003 -0.58631884 -0.34235931)
(0.96592764 0 -0.25881229)
(0 1 0)
(0.96592764 0 -0.25881229)
(0.78247968 -0.58631791 -0.20965893)
(0.00091158161 0.96584305 -0.25912618)
(1 0 -0)
(0.00092456368 0.90622108 -0.42280315)
(1 0 0)
(0 0.81925071 -0.5734355)
(1 0 0)
(0 0.70710678 -0.70710678)
(1 0 -0)
(0 0.5734355 -0.81925071)
(1 0 0)
(0.00090117646 0.42280316 -0.9062211)
(1 0 0)
(0.00090581462 0.25910114 -0.96584977)
(1 0 -0)
(0.00089759233 0.086810841 -0.99622441)
(1 0 0)
(0.00089868425 -0.086880091 -0.99621837)
(1 0 0)
(0.00090041947 -0.25890093 -0.96590346)
(1 -0 0)
(0.00093147381 -0.42280314 -0.90622107)
(1 0 0)
(0 -0.57381154 -0.81898738)
(1 0 0)
(0 -0.70675642 -0.70745697)
(1 -0 0)
(0 -0.81920373 -0.57350261)
(1 0 0)
(-0 -0.96584345 -0.25912629)
(1 -0 0)
(-0 -0.90622147 -0.42280333)
(1 0 0)
(0 -0.99622556 -0.086802227)
(1 0 0)
(0.0008977076 -0.99621837 0.086880091)
(1 0 0)
(0.00089849435 -0.96589676 0.25892594)
(1 0 0)
(0.000909199 -0.90623897 0.42276483)
(1 0 0)
(0 -0.81890739 0.57392568)
(1 0 0)
(0 -0.70715679 0.70705677)
(1 0 0)
(0 -0.57387865 0.81894035)
(1 0 0)
(0.00088906569 -0.42280316 0.90622111)
(1 0 0)
(0.00089316597 -0.25880763 0.96592847)
(1 0 0)
(0.00088499877 -0.086979428 0.99620971)
(1 0 -0)
(0.00088645347 0.086910099 0.99621576)
(1 0 0)
(0.00090614772 0.25900777 0.96587481)
(1 0 0)
(0.00088906569 0.42280316 0.90622111)
(1 0 0)
(-0 0.57350261 0.81920373)
(1 0 0)
(-0 0.70750695 0.70670638)
(1 0 0)
(-0 0.81895442 0.57385857)
(1 0 0)
(0 0.96589715 0.25892604)
(1 0 0)
(0 0.90623935 0.42276501)
(1 0 0)
(0.00090227652 0.99622516 -0.086802192)
(1 -0 0)
(0 0.99621877 0.086880126)
(1 0 0)
(0.96586849 6.6712364e-05 -0.25903292)
(0 -1 0)
(0.90635558 4.6468449e-05 -0.42251576)
(0 -1 0)
(0.8192742 6.440235e-05 -0.57340193)
(0 -1 0)
(0.70680646 5.8693946e-05 -0.70740697)
(0 -1 0)
(0.57362347 5.3003586e-05 -0.81911911)
(0 -1 0)
(0.42282249 4.7786329e-05 -0.90621252)
(0 -1 0)
(0.2590011 4.3420536e-05 -0.96587703)
(0 -1 0)
(0.086841159 7.8677955e-05 -0.99622217)
(0 -1 0)
(-0.086841159 3.8914948e-05 -0.99622217)
(0 -1 -0)
(-0.2590011 7.7356163e-05 -0.96587702)
(0 -1 0)
(-0.42282249 4.3657201e-05 -0.90621253)
(0 -1 0)
(-0.57362347 4.7401792e-05 -0.81911911)
(0 -1 0)
(-0.70680646 5.3517138e-05 -0.70740697)
(0 -1 0)
(-0.8192742 5.8401804e-05 -0.57340193)
(0 -1 0)
(-0.90633642 6.2973603e-05 -0.42255685)
(0 -1 0)
(-0.96586849 4.951965e-05 -0.25903292)
(0 -1 0)
(-0.99620391 6.4203898e-05 -0.087050342)
(-0 -1 0)
(-0.99619708 5.8370953e-05 0.08712846)
(0 -1 0)
(-0.96592216 5.895524e-05 0.25883273)
(0 -1 -0)
(-0.90635428 6.2973022e-05 0.42251854)
(0 -1 0)
(-0.81897794 6.7205568e-05 0.573825)
(0 -1 0)
(-0.7072068 5.8695905e-05 0.70700674)
(0 -1 -0)
(-0.57369059 5.3004208e-05 0.8190721)
(0 -1 0)
(-0.42282249 5.1178915e-05 0.90621252)
(0 -1 0)
(-0.25890777 8.5234252e-05 0.96590205)
(0 -1 -0)
(-0.086940451 7.8465991e-05 0.99621351)
(0 -1 0)
(0.086940451 8.2693546e-05 0.99621351)
(0 -1 0)
(0.25890777 7.7989533e-05 0.96590205)
(-0 -1 0)
(0.42282249 8.4513296e-05 0.90621252)
(0 -1 0)
(0.57369059 5.2801748e-05 0.8190721)
(0 -1 0)
(0.7072068 5.3516165e-05 0.70700674)
(-0 -1 0)
(0.81897794 5.8405311e-05 0.573825)
(0 -1 0)
(0.90637343 6.5035278e-05 0.42247745)
(0 -1 0)
(0.96592216 5.963306e-05 0.25883273)
(-0 -1 0)
(0.99619274 5.8370698e-05 0.087178125)
(0 -1 0)
(0.99619957 6.0803228e-05 -0.087099963)
(0 -1 0)
(0.999872 -0.0010149556 0.015967378)
(0 -0.97605541 0.21752206)
(0.99975055 -0.00093530202 0.022315046)
(0 -0.95394791 0.29997229)
(0.99960318 -0.00086484652 0.028155577)
(0 -0.9236731 0.38318142)
(0.99941927 -0.00079633295 0.034065926)
(0 -0.88711864 0.46154146)
(0.99910934 -0.00070582238 0.042190362)
(0 -0.81890739 0.57392568)
(0.99864949 -0.00060527898 0.051950185)
(0 -0.70715679 0.70705677)
(0.99818681 -0.00052637357 0.060189823)
(0 -0.57387865 0.81894035)
(0.98306598 -0.057253076 0.17407861)
(0 -0.4608878 0.88745841)
(0.98723132 -0.036903341 0.15495954)
(0 -0.38381911 0.9234083)
(0.98956781 -0.022924007 0.14223235)
(0 -0.29991504 0.95396592)
(0.99076559 -0.01441969 0.13481694)
(0 -0.21733193 0.97609776)
(0.99162475 -0.0073060401 0.12894561)
(0 -0.12904075 0.99163929)
(0.99212429 -0.0024942131 0.12523244)
(0 -0.044525163 0.99900826)
(0.99255321 0.0023356761 0.12178947)
(-0 0.044453906 0.99901144)
(0.99283064 0.0060492937 0.11937642)
(0 0.12904075 0.99163929)
(0.99309491 0.010366703 0.11685472)
(-0 0.21699375 0.97617299)
(0.99328235 0.014275756 0.11483192)
(0 0.3008336 0.95367664)
(0.99345225 0.019137167 0.11263392)
(-0 0.38381911 0.9234083)
(0.99355937 0.024005642 0.11074069)
(0 0.4608878 0.88745841)
(0.99362855 0.03383951 0.10750434)
(0 0.57350261 0.81920373)
(0.99326413 0.052358977 0.10336784)
(0 0.70750695 0.70670638)
(0.99165351 0.082426357 0.099142418)
(0 0.81895442 0.57385857)
(0.98806354 0.12043169 0.096055436)
(0 0.88709201 0.46159263)
(0.98268568 0.15989368 0.093610189)
(0.0018055916 0.9235578 0.38345499)
(0.97113776 0.22061799 0.090659593)
(0 0.95394002 0.29999741)
(0.94309261 0.32112856 0.086329477)
(0.001812261 0.97615105 0.21708487)
(0 0.991532 0.12986259)
(0.97138918 0.21948408 -0.090718271)
(0 0.95365848 -0.30089119)
(0 0.9915859 -0.12945038)
(0.94300966 0.32137314 -0.086325468)
(0 0.97613077 -0.21718362)
(0.98266921 0.15999761 -0.09360547)
(0 0.92397533 -0.38245206)
(0.98804766 0.12057187 -0.09604288)
(0 0.88680515 -0.46214351)
(0.99164312 0.082565542 -0.099130486)
(0 0.81925071 -0.5734355)
(0.99326693 0.052263229 -0.10338933)
(0 0.70710678 -0.70710678)
(0.99362867 0.033828149 -0.10750687)
(0 0.5734355 -0.81925071)
(0.99355995 0.024041164 -0.11072777)
(0 0.46159263 -0.88709201)
(0.99345207 0.019126724 -0.1126373)
(0 0.38348348 -0.92354774)
(0.99328648 0.014380813 -0.11478308)
(0 0.30063519 -0.95373921)
(0.99308851 0.010257113 -0.11691876)
(0 0.21682427 -0.97621065)
(0.99283246 0.0060776797 -0.11935985)
(0 0.12968193 -0.99155565)
(0.99255042 0.0023007795 -0.12181285)
(0 0.044033833 -0.99903004)
(0.9921284 -0.0024518998 -0.12520074)
(0 -0.0440426 -0.99902965)
(0.99161865 -0.0073591743 -0.1289895)
(0 -0.12986259 -0.991532)
(0.99075687 -0.014488473 -0.13487366)
(0 -0.21686673 -0.97620122)
(0.98958098 -0.022840173 -0.1421542)
(0 -0.30012156 -0.95390096)
(0.99785269 -0.00047868714 -0.065496402)
(0 -0.46285359 -0.88643475)
(0.99818619 -0.0005262747 -0.060200142)
(0 -0.57381154 -0.81898738)
(0.99867243 -0.00010643754 -0.05151088)
(0 -0.70675642 -0.70745697)
(0.99913021 -6.9220127e-05 -0.041699212)
(0 -0.81920373 -0.57350261)
(0.99943281 -4.5544852e-05 -0.033675851)
(-0 -0.88646378 -0.46279798)
(0.99961306 -3.0930594e-05 -0.027815871)
(0.0018765105 -0.9241892 -0.38193037)
(0.99975574 -1.9395811e-05 -0.022101332)
(-0 -0.95365848 -0.30089119)
(0.99987647 -9.6317282e-06 -0.015717695)
(0.0018141662 -0.97612312 -0.21721043)
(0.99995424 -3.3251392e-06 -0.0095669643)
(0 -0.991616 -0.12921965)
(0.99999519 0 -0.0031018462)
(0.001797134 -0.99902158 -0.044188838)
(0.99999431 -0.0011853475 0.0031593252)
(0 -0.99902031 0.044254057)
(0.99995224 -0.0010965695 0.0097113642)
(0 -0.99161266 0.12924524)
(0.99766914 -0.00045472731 -0.06823549)
(0 -0.3821229 -0.92411151)
(-0.78247269 -0.58631738 0.20968646)
(-0.96591856 5.96334e-05 0.25884616)
(-0.73420332 -0.58632194 0.34230406)
(-0.90633642 6.5036869e-05 0.42255685)
(-0.66352396 -0.58631519 0.46472621)
(-0.81908143 5.8404088e-05 0.57367727)
(-0.57295109 -0.58632673 0.57266745)
(-0.70728183 5.3515981e-05 0.70693169)
(-0.46475523 -0.58632378 0.66349605)
(-0.57371749 5.140103e-05 0.81905326)
(-0.34203936 -0.58630165 0.73434287)
(-0.42222244 8.3492514e-05 0.90649225)
(-0.20986086 -0.58632707 0.78241868)
(-0.25906368 7.735531e-05 0.96586024)
(-0.070359581 -0.58630702 0.80702763)
(-0.086854144 8.2694171e-05 0.99622104)
(0.070361571 -0.58633115 0.80700993)
(0.086858473 7.8678007e-05 0.99622066)
(0.20986431 -0.5863087 0.78243152)
(0.25906368 8.5866307e-05 0.96586024)
(0.34202972 -0.58633322 0.73432215)
(0.42222244 5.220591e-05 0.90649226)
(0.46474114 -0.58631186 0.66351645)
(0.57369398 5.3004239e-05 0.81906972)
(0.57295987 -0.58630959 0.57267622)
(0.70728183 5.869627e-05 0.70693169)
(0.66351963 -0.58632249 0.46472318)
(0.81908143 6.7204382e-05 0.57367727)
(0.73422336 -0.58631504 0.34227289)
(0.90635558 6.297298e-05 0.42251576)
(0.78245936 -0.58632195 0.20972343)
(0.96590605 5.6596086e-05 0.25889285)
(0.80700076 -0.58631739 0.070581147)
(0.99619708 6.0803076e-05 0.08712846)
(0.80699952 -0.58631996 -0.070573948)
(0.99619784 6.1774115e-05 -0.087119773)
(0.78250225 -0.58632272 -0.2095612)
(0.96595965 4.9524324e-05 -0.25869276)
(0.73411061 -0.58631029 -0.34252278)
(0.90621255 6.2977626e-05 -0.42282244)
(0.66372836 -0.58633011 -0.4644154)
(0.81934467 5.8400967e-05 -0.57330123)
(0.57263652 -0.58630776 -0.57300142)
(0.70688153 5.3516957e-05 -0.70733196)
(0.46473662 -0.58632274 -0.66351)
(0.57369398 4.8802377e-05 -0.81906972)
(0.34256379 -0.58632861 -0.73407684)
(0.42287999 4.4689698e-05 -0.90618569)
(0.20926093 -0.5862992 -0.78260022)
(0.25831667 7.7996124e-05 -0.9660603)
(0.071004758 -0.58633662 -0.80694962)
(0.08765289 3.8912171e-05 -0.99615108)
(-0.07100353 -0.5863002 -0.80697619)
(-0.087648521 7.846633e-05 -0.99615146)
(-0.20925382 -0.58633725 -0.78257362)
(-0.25831667 4.2782e-05 -0.9660603)
(-0.34257036 -0.58630714 -0.73409092)
(-0.42287999 4.6754543e-05 -0.90618569)
(-0.46475975 -0.58631291 -0.66350249)
(-0.57371749 5.3004457e-05 -0.81905326)
(-0.57262579 -0.58632873 -0.57299068)
(-0.70688153 5.8694314e-05 -0.70733196)
(-0.6637419 -0.58630728 -0.46442488)
(-0.81934467 6.440203e-05 -0.57330123)
(-0.73408348 -0.58632797 -0.34255067)
(-0.90619337 4.6460133e-05 -0.42286354)
(-0.78251997 -0.58631185 -0.20952543)
(-0.96597215 6.906166e-05 -0.25864609)
(-0.80699685 -0.58631877 -0.070614252)
(-0.9961935 5.8370743e-05 -0.087169433)
(-0.80699699 -0.58631773 0.070621359)
(-0.99619274 6.0802811e-05 0.087178125)
)

// normal volume types

474
(
0
0
0
0
0
0
0
0
0
0
0
0
0
0
0
0
0
0
0
0
0
0
0
0
0
0
0
0
0
0
0
0
0
0
0
0
0
0
0
0
0
0
0
0
0
0
0
0
0
0
0
0
0
0
0
0
0
0
0
0
0
0
0
0
0
0
0
0
0
0
0
0
0
0
0
0
0
0
0
0
0
0
0
0
0
0
0
0
0
0
0
0
0
0
0
0
0
0
0
0
0
0
0
0
0
0
0
0
0
0
0
0
0
0
0
0
0
0
0
0
0
0
0
0
0
0
0
0
0
0
0
0
0
0
0
0
0
0
0
0
0
0
0
0
0
0
0
0
0
0
0
0
0
0
0
0
0
0
0
0
0
0
0
0
0
0
0
0
0
0
0
0
0
0
0
0
0
0
0
0
0
0
0
0
0
0
0
0
0
0
0
0
0
0
0
0
0
0
0
0
0
0
0
0
0
0
0
0
0
0
0
0
0
0
0
0
0
0
0
0
0
0
0
0
0
0
0
0
0
0
0
0
0
0
0
0
0
0
0
0
0
0
0
0
0
0
0
0
0
0
0
0
0
0
0
0
0
0
0
0
0
0
0
0
0
0
0
0
0
0
0
0
0
0
0
0
0
0
0
0
0
0
0
0
0
0
0
0
0
0
0
0
0
0
0
0
0
0
0
0
0
0
0
0
0
0
0
0
0
0
0
0
0
0
0
0
0
0
0
0
0
0
0
0
0
0
0
0
0
0
0
0
0
0
0
0
0
0
0
0
0
0
0
0
0
0
0
0
0
0
0
0
0
0
0
0
0
0
0
0
0
0
0
0
0
0
0
0
0
0
0
0
0
0
0
0
0
0
0
0
0
0
0
0
0
0
0
0
0
0
0
0
0
0
0
0
0
0
0
0
0
0
0
0
0
0
0
0
0
0
0
0
0
0
0
0
0
0
0
0
0
0
0
0
0
0
0
0
0
0
0
0
0
0
0
0
0
0
0
0
0
0
0
0
0
0
0
0
0
0
0
0
0
0
0
0
0
0
0
0
0
0
0
0
0
0
0
0
0
0
0
0
0
0
)

// normalDirections

238
(
2(1 -1)
2(1 -1)
2(1 -1)
2(1 -1)
2(1 -1)
2(1 -1)
2(1 -1)
2(1 -1)
2(1 -1)
2(1 -1)
2(1 -1)
2(1 -1)
2(1 -1)
2(1 -1)
2(1 -1)
2(1 -1)
2(1 -1)
2(1 -1)
2(1 -1)
2(1 -1)
2(1 -1)
2(1 -1)
2(1 -1)
2(1 -1)
2(1 -1)
2(1 -1)
2(1 -1)
2(1 -1)
2(1 -1)
2(1 -1)
2(1 -1)
2(1 -1)
2(1 -1)
2(1 -1)
2(1 -1)
2(1 -1)
2(1 -1)
2(1 -1)
2(1 -1)
2(1 -1)
2(1 -1)
2(1 -1)
2(1 -1)
2(1 -1)
2(1 -1)
2(1 -1)
2(1 -1)
2(1 -1)
2(1 -1)
2(1 -1)
2(1 -1)
2(1 -1)
2(1 -1)
2(1 -1)
2(1 -1)
2(1 -1)
2(1 -1)
2(1 -1)
2(1 -1)
2(1 -1)
2(1 -1)
2(1 -1)
2(1 -1)
2(1 -1)
2(1 -1)
2(1 -1)
2(1 -1)
2(1 -1)
2(1 -1)
2(1 -1)
2(1 -1)
2(1 -1)
2(1 -1)
2(1 -1)
2(1 -1)
2(1 -1)
2(1 -1)
2(1 -1)
2(1 -1)
2(1 -1)
2(1 -1)
2(1 -1)
2(1 -1)
2(1 -1)
2(1 -1)
2(1 -1)
2(1 -1)
2(1 -1)
2(1 -1)
2(1 -1)
2(1 -1)
2(1 -1)
2(1 -1)
2(1 -1)
2(1 -1)
2(1 -1)
2(1 -1)
2(1 -1)
2(1 -1)
2(1 -1)
2(1 -1)
2(1 -1)
2(1 -1)
2(1 -1)
2(1 -1)
2(1 -1)
2(1 -1)
2(1 -1)
2(1 -1)
2(1 -1)
2(1 -1)
2(1 -1)
2(1 -1)
2(1 -1)
2(1 -1)
2(1 -1)
2(1 -1)
2(1 -1)
2(1 -1)
2(1 -1)
2(1 -1)
2(1 -1)
2(1 -1)
2(1 -1)
2(1 -1)
2(1 -1)
2(1 -1)
2(1 -1)
2(1 -1)
2(1 -1)
2(1 -1)
2(1 -1)
2(1 -1)
2(1 -1)
2(1 -1)
2(1 -1)
2(1 -1)
2(1 -1)
2(1 -1)
2(1 -1)
2(1 -1)
2(1 -1)
2(1 -1)
2(1 -1)
2(1 -1)
2(1 -1)
2(1 -1)
2(1 -1)
2(1 -1)
2(1 -1)
2(1 -1)
2(1 -1)
2(1 -1)
2(1 -1)
2(1 -1)
2(1 -1)
2(1 -1)
2(1 -1)
2(1 -1)
2(1 -1)
2(1 -1)
2(1 -1)
2(1 -1)
2(1 -1)
2(1 -1)
2(1 -1)
2(1 -1)
2(1 -1)
2(1 -1)
2(1 -1)
2(1 -1)
2(1 -1)
2(1 -1)
2(1 -1)
2(1 -1)
2(1 -1)
2(1 -1)
2(1 -1)
2(1 -1)
2(1 -1)
2(1 -1)
2(1 -1)
2(1 -1)
2(1 -1)
2(1 -1)
2(1 -1)
2(1 -1)
2(1 -1)
2(1 -1)
2(1 -1)
2(1 -1)
2(1 -1)
2(1 -1)
2(1 -1)
2(1 -1)
2(1 -1)
2(1 -1)
2(1 -1)
2(1 -1)
2(1 -1)
2(1 -1)
2(1 -1)
2(1 -1)
2(1 -1)
2(1 -1)
2(1 -1)
2(1 -1)
2(1 -1)
2(1 -1)
2(1 -1)
2(1 -1)
2(1 -1)
2(1 -1)
2(1 -1)
2(1 -1)
2(1 -1)
2(1 -1)
2(1 -1)
2(1 -1)
2(1 -1)
2(1 -1)
2(1 -1)
2(1 -1)
2(1 -1)
2(1 -1)
2(1 -1)
2(1 -1)
2(1 -1)
2(1 -1)
2(1 -1)
2(1 -1)
2(1 -1)
2(1 -1)
2(1 -1)
2(1 -1)
2(1 -1)
2(1 -1)
2(1 -1)
)

// edgeNormals

238
(
2(0 1)
2(2 3)
2(4 5)
2(6 7)
2(8 9)
2(10 11)
2(12 13)
2(14 15)
2(16 17)
2(18 19)
2(20 21)
2(22 23)
2(24 25)
2(26 27)
2(28 29)
2(30 31)
2(32 33)
2(34 35)
2(36 37)
2(38 39)
2(40 41)
2(42 43)
2(44 45)
2(46 47)
2(48 49)
2(50 51)
2(52 53)
2(54 55)
2(56 57)
2(58 59)
2(60 61)
2(62 63)
2(64 65)
2(66 67)
2(68 69)
2(70 71)
2(72 73)
2(74 75)
2(76 77)
2(78 79)
2(80 81)
2(82 83)
2(84 85)
2(86 87)
2(88 89)
2(90 91)
2(92 93)
2(94 95)
2(96 97)
2(98 99)
2(100 101)
2(102 103)
2(104 105)
2(106 107)
2(108 109)
2(110 111)
2(112 113)
2(114 115)
2(116 117)
2(118 119)
2(120 121)
2(122 123)
2(124 125)
2(126 127)
2(128 129)
2(130 131)
2(132 133)
2(134 135)
2(136 137)
2(138 139)
2(140 141)
2(142 143)
2(144 145)
2(146 147)
2(148 149)
2(150 151)
2(152 153)
2(154 155)
2(156 157)
2(158 159)
2(160 161)
2(162 163)
2(164 165)
2(166 167)
2(168 169)
2(170 171)
2(172 173)
2(174 175)
2(176 177)
2(178 179)
2(180 181)
2(182 183)
2(184 185)
2(186 187)
2(188 189)
2(190 191)
2(192 193)
2(194 195)
2(196 197)
2(198 199)
2(200 201)
2(202 203)
2(204 205)
2(206 207)
2(208 209)
2(210 211)
2(212 213)
2(214 215)
2(216 217)
2(218 219)
2(220 221)
2(222 223)
2(224 225)
2(226 227)
2(228 229)
2(230 231)
2(232 233)
2(234 235)
2(236 237)
2(238 239)
2(240 241)
2(242 243)
2(244 245)
2(246 247)
2(248 249)
2(250 251)
2(252 253)
2(254 255)
2(256 257)
2(258 259)
2(260 261)
2(262 263)
2(264 265)
2(266 267)
2(268 269)
2(270 271)
2(272 273)
2(274 275)
2(276 277)
2(278 279)
2(280 281)
2(282 283)
2(284 285)
2(286 287)
2(288 289)
2(290 291)
2(292 293)
2(294 295)
2(296 297)
2(298 299)
2(300 301)
2(302 303)
2(304 305)
2(306 307)
2(308 309)
2(310 311)
2(312 313)
2(314 315)
2(316 317)
2(318 319)
2(320 321)
2(322 323)
2(324 325)
2(326 327)
2(328 329)
2(330 331)
2(332 333)
2(334 335)
2(336 337)
2(338 339)
2(0 340)
2(341 342)
2(3 343)
2(344 345)
2(346 347)
2(348 349)
2(350 351)
2(352 353)
2(354 355)
2(356 357)
2(358 359)
2(360 361)
2(362 363)
2(364 365)
2(366 367)
2(368 369)
2(370 371)
2(372 373)
2(374 375)
2(376 377)
2(378 379)
2(380 381)
2(382 383)
2(384 385)
2(386 387)
2(388 389)
2(390 391)
2(392 393)
2(394 395)
2(396 397)
2(398 399)
2(400 401)
2(402 403)
2(404 405)
2(406 407)
2(408 409)
2(410 411)
2(412 413)
2(414 415)
2(416 417)
2(418 419)
2(420 421)
2(422 423)
2(424 425)
2(426 427)
2(428 429)
2(430 431)
2(432 433)
2(434 435)
2(436 437)
2(438 439)
2(440 441)
2(442 443)
2(444 445)
2(446 447)
2(448 449)
2(450 451)
2(452 453)
2(454 455)
2(456 457)
2(458 459)
2(460 461)
2(462 463)
2(464 465)
2(466 467)
2(468 469)
2(470 471)
2(472 473)
)

// featurePointNormals
0()
// featurePointEdges
0()
// regionEdges
0()


// ************************************************************************* //
