/*--------------------------------*- C++ -*----------------------------------*\
  =========                 |
  \\      /  F ield         | OpenFOAM: The Open Source CFD Toolbox
   \\    /   O peration     | Website:  https://openfoam.org
    \\  /    A nd           | Version:  7
     \\/     M anipulation  |
\*---------------------------------------------------------------------------*/
FoamFile
{
    version     2.0;
    format      ascii;
    class       extendedFeatureEdgeMesh;
    location    "constant/extendedFeatureEdgeMesh";
    object      vessel.extendedFeatureEdgeMesh;
}
// * * * * * * * * * * * * * * * * * * * * * * * * * * * * * * * * * * * * * //

// points

746
(
(13.523 137.554 144.616)
(13.5135 138.311 144.818)
(13.5103 139.093 144.887)
(13.5135 139.874 144.818)
(13.5856 135.646 143.281)
(13.5596 136.2 143.835)
(13.5385 136.843 144.285)
(13.6846 134.661 141.172)
(13.6491 134.864 141.929)
(13.6158 135.196 142.639)
(13.7934 134.864 138.854)
(13.7579 134.661 139.611)
(13.7213 134.593 140.392)
(13.8829 136.2 136.948)
(13.8569 135.646 137.502)
(13.8267 135.196 138.144)
(13.929 138.311 135.965)
(13.9195 137.554 136.168)
(13.904 136.843 136.499)
(13.9195 140.632 136.168)
(13.929 139.874 135.965)
(13.9322 139.093 135.897)
(13.8569 142.54 137.502)
(13.8829 141.985 136.948)
(13.904 141.343 136.499)
(13.7579 143.524 139.611)
(13.7934 143.321 138.854)
(13.8267 142.99 138.144)
(13.6491 143.321 141.929)
(13.6846 143.524 141.172)
(13.7213 143.593 140.392)
(13.5596 141.985 143.835)
(13.5856 142.54 143.281)
(13.6158 142.99 142.639)
(13.523 140.632 144.616)
(13.5385 141.343 144.285)
(148.122 0.0927614 128.229)
(145.798 0.0927614 121.113)
(145.798 169.093 121.113)
(148.122 169.093 128.229)
(142.633 0.0927614 114.328)
(142.633 169.093 114.328)
(138.673 0.0927614 107.975)
(138.673 169.093 107.975)
(133.977 0.0927614 102.145)
(133.977 169.093 102.145)
(128.611 0.0927614 96.9234)
(128.611 169.093 96.9234)
(122.656 0.0927614 92.3867)
(122.656 169.093 92.3867)
(116.198 0.0927614 88.6009)
(116.198 169.093 88.6009)
(109.33 0.0927614 85.6211)
(109.33 169.093 85.6211)
(102.153 0.0927614 83.4908)
(102.153 169.093 83.4908)
(94.7716 0.0927614 82.2411)
(94.7716 169.093 82.2411)
(87.2934 0.0927614 81.8901)
(87.2934 169.093 81.8901)
(79.8275 0.0927614 82.443)
(79.8275 169.093 82.443)
(72.4826 0.0927614 83.8917)
(72.4826 169.093 83.8917)
(65.3659 0.0927614 86.2152)
(65.3659 169.093 86.2152)
(58.5811 0.0927614 89.3794)
(58.5811 169.093 89.3794)
(52.2271 0.0927614 93.3384)
(52.2271 169.093 93.3384)
(46.3966 0.0927614 98.0343)
(46.3966 169.093 98.0343)
(41.1746 0.0927614 103.399)
(41.1746 169.093 103.399)
(36.6373 0.0927614 109.354)
(36.6373 169.093 109.354)
(32.8507 0.0927614 115.812)
(32.8507 169.093 115.812)
(29.8701 0.0927614 122.679)
(29.8701 169.093 122.679)
(26.4878 0.0927614 137.242)
(26.1367 0.0927614 144.723)
(27.7383 0.0927614 129.859)
(26.6901 0.0927614 152.192)
(26.4878 169.093 137.242)
(27.7383 169.093 129.859)
(26.1367 169.093 144.723)
(26.6901 169.093 152.192)
(28.1401 0.0927614 159.54)
(28.1401 169.093 159.54)
(30.4644 0.0927614 166.656)
(30.4644 169.093 166.656)
(33.6294 0.0927614 173.441)
(33.6294 169.093 173.441)
(37.5891 0.0927614 179.794)
(37.5891 169.093 179.794)
(42.2857 0.0927614 185.624)
(42.2857 169.093 185.624)
(47.6507 0.0927614 190.845)
(47.6507 169.093 190.845)
(53.6059 0.0927614 195.382)
(53.6059 169.093 195.382)
(60.0645 0.0927614 199.168)
(60.0645 169.093 199.168)
(66.9324 0.0927614 202.148)
(66.9324 169.093 202.148)
(74.1093 0.0927614 204.278)
(74.1093 169.093 204.278)
(81.4906 0.0927614 205.528)
(81.4906 169.093 205.528)
(88.9688 0.0927614 205.879)
(88.9688 169.093 205.879)
(96.4348 0.0927614 205.326)
(96.4348 169.093 205.326)
(103.78 0.0927614 203.877)
(103.78 169.093 203.877)
(110.896 0.0927614 201.554)
(110.896 169.093 201.554)
(117.681 0.0927614 198.389)
(117.681 169.093 198.389)
(124.035 0.0927614 194.43)
(124.035 169.093 194.43)
(129.866 0.0927614 189.734)
(129.866 169.093 189.734)
(135.088 0.0927614 184.37)
(135.088 169.093 184.37)
(139.625 0.0927614 178.415)
(139.625 169.093 178.415)
(143.411 0.0927614 171.957)
(143.411 169.093 171.957)
(146.392 0.0927614 165.09)
(146.392 169.093 165.09)
(148.524 169.093 157.91)
(149.774 169.093 150.526)
(150.126 169.093 143.045)
(149.572 169.093 135.577)
(149.774 0.0927614 150.526)
(148.524 0.0927614 157.91)
(149.572 0.0927614 135.577)
(150.126 0.0927614 143.045)
(158.831 3.86415 148.743)
(158.866 3.66113 147.987)
(158.903 3.59276 147.206)
(158.939 3.66113 146.426)
(158.741 5.20022 150.65)
(158.767 4.64556 150.095)
(158.797 4.19565 149.454)
(158.695 7.31135 151.633)
(158.705 6.55367 151.43)
(158.72 5.84276 151.099)
(158.705 9.63185 151.43)
(158.695 8.87418 151.633)
(158.692 8.09276 151.701)
(158.767 11.54 150.095)
(158.741 10.9853 150.65)
(158.72 10.3428 151.099)
(158.866 12.5244 147.987)
(158.831 12.3214 148.743)
(158.797 11.9899 149.454)
(158.975 12.3214 145.669)
(158.939 12.5244 146.426)
(158.903 12.5928 147.206)
(159.064 10.9853 143.763)
(159.038 11.54 144.317)
(159.008 11.9899 144.958)
(159.111 8.87418 142.779)
(159.101 9.63185 142.982)
(159.086 10.3428 143.313)
(159.101 6.55367 142.982)
(159.111 7.31135 142.779)
(159.114 8.09276 142.711)
(159.038 4.64556 144.317)
(159.064 5.20022 143.763)
(159.086 5.84276 143.313)
(158.975 3.86415 145.669)
(159.008 4.19565 144.958)
(139.133 8.87418 141.842)
(139.123 9.63185 142.044)
(139.108 10.3428 142.376)
(139.087 10.9853 142.825)
(139.061 11.54 143.379)
(139.03 11.9899 144.021)
(138.997 12.3214 144.731)
(138.962 12.5244 145.488)
(138.925 12.5928 146.268)
(138.888 12.5244 147.049)
(138.853 12.3214 147.806)
(138.819 11.9899 148.516)
(138.789 11.54 149.158)
(138.763 10.9853 149.712)
(138.742 10.3428 150.161)
(138.727 9.63185 150.492)
(138.717 8.87418 150.695)
(138.714 8.09276 150.763)
(138.717 7.31135 150.695)
(138.727 6.55367 150.492)
(138.742 5.84276 150.161)
(138.763 5.20022 149.712)
(138.789 4.64556 149.158)
(138.819 4.19565 148.516)
(138.853 3.86415 147.806)
(138.888 3.66113 147.049)
(138.925 3.59276 146.268)
(138.962 3.66113 145.488)
(138.997 3.86415 144.731)
(139.03 4.19565 144.021)
(139.061 4.64556 143.379)
(139.087 5.20022 142.825)
(139.108 5.84276 142.376)
(139.123 6.55367 142.044)
(139.133 7.31135 141.842)
(139.136 8.09276 141.773)
(138.861 4.33399 147.635)
(138.892 4.15353 146.962)
(138.831 4.62866 148.266)
(138.804 5.02858 148.837)
(138.781 5.52161 149.329)
(138.762 6.09276 149.729)
(138.749 6.72468 150.023)
(138.74 7.39817 150.203)
(138.737 8.09276 150.264)
(138.74 8.78735 150.203)
(138.749 9.46084 150.023)
(138.762 10.0928 149.729)
(138.781 10.6639 149.329)
(138.804 11.1569 148.837)
(138.831 11.5569 148.266)
(138.861 11.8515 147.635)
(138.892 12.032 146.962)
(138.925 12.0928 146.268)
(138.957 12.032 145.574)
(138.989 11.8515 144.902)
(139.019 11.5569 144.27)
(139.045 11.1569 143.7)
(139.068 10.6639 143.208)
(139.087 10.0928 142.808)
(139.101 9.46084 142.514)
(139.109 8.78735 142.333)
(139.112 8.09276 142.273)
(139.109 7.39817 142.333)
(139.101 6.72468 142.514)
(139.087 6.09276 142.808)
(139.068 5.52161 143.208)
(139.045 5.02858 143.7)
(139.019 4.62866 144.27)
(138.989 4.33399 144.902)
(138.957 4.15353 145.574)
(138.925 4.09276 146.268)
(35.9048 138.311 136.996)
(35.8953 137.554 137.199)
(35.8798 136.843 137.53)
(35.8587 136.2 137.98)
(35.8327 135.646 138.534)
(35.8026 135.196 139.176)
(35.7692 134.864 139.886)
(35.7337 134.661 140.643)
(35.6971 134.593 141.423)
(35.6604 134.661 142.204)
(35.6249 134.864 142.96)
(35.5916 135.196 143.671)
(35.5615 135.646 144.312)
(35.5354 136.2 144.867)
(35.5144 136.843 145.316)
(35.4988 137.554 145.647)
(35.4893 138.311 145.85)
(35.4861 139.093 145.918)
(35.4893 139.874 145.85)
(35.4988 140.632 145.647)
(35.5144 141.343 145.316)
(35.5354 141.985 144.867)
(35.5615 142.54 144.312)
(35.5916 142.99 143.671)
(35.6249 143.321 142.96)
(35.6604 143.524 142.204)
(35.6971 143.593 141.423)
(35.7337 143.524 140.643)
(35.7692 143.321 139.886)
(35.8026 142.99 139.176)
(35.8327 142.54 138.534)
(35.8587 141.985 137.98)
(35.8798 141.343 137.53)
(35.8953 140.632 137.199)
(35.9048 139.874 136.996)
(35.9081 139.093 136.928)
(35.5346 141.093 144.883)
(35.5534 141.664 144.484)
(35.5208 140.461 145.178)
(35.5124 139.787 145.358)
(35.5095 139.093 145.419)
(35.5124 138.398 145.358)
(35.5208 137.725 145.178)
(35.5346 137.093 144.883)
(35.5534 136.522 144.484)
(35.5765 136.029 143.992)
(35.6033 135.629 143.421)
(35.6329 135.334 142.79)
(35.6645 135.154 142.117)
(35.6971 135.093 141.423)
(35.7296 135.154 140.729)
(35.7612 135.334 140.057)
(35.7908 135.629 139.425)
(35.8176 136.029 138.855)
(35.8407 136.522 138.362)
(35.8595 137.093 137.963)
(35.8733 137.725 137.669)
(35.8818 138.398 137.488)
(35.8846 139.093 137.428)
(35.8818 139.787 137.488)
(35.8733 140.461 137.669)
(35.8595 141.093 137.963)
(35.8407 141.664 138.362)
(35.8176 142.157 138.855)
(35.7908 142.557 139.425)
(35.7612 142.852 140.057)
(35.7296 143.032 140.729)
(35.6971 143.093 141.423)
(35.6645 143.032 142.117)
(35.6329 142.852 142.79)
(35.6033 142.557 143.421)
(35.5765 142.157 143.992)
(26.2188 143.576 140.586)
(26.2408 143.524 140.197)
(26.5654 139.874 136.558)
(26.5715 139.486 136.507)
(26.5554 140.256 136.642)
(26.5417 140.632 136.76)
(26.5245 140.996 136.91)
(26.5044 141.343 137.09)
(26.4878 141.589 137.242)
(26.4566 141.985 137.538)
(26.4023 142.54 138.091)
(26.3455 142.99 138.732)
(26.2648 143.439 139.813)
(26.2904 143.321 139.441)
(26.3175 143.171 139.08)
(26.1992 143.593 140.977)
(26.1821 143.576 141.368)
(26.1675 143.524 141.758)
(26.1555 143.439 142.142)
(26.1461 143.321 142.516)
(26.1392 143.171 142.878)
(26.1345 142.99 143.227)
(26.131 142.54 143.87)
(26.1334 141.985 144.425)
(26.1369 141.569 144.736)
(26.1389 141.343 144.876)
(26.1421 140.994 145.058)
(26.1451 140.632 145.208)
(26.1478 140.258 145.326)
(26.1498 139.874 145.411)
(26.1511 139.484 145.463)
(26.1516 139.093 145.48)
(26.1511 138.701 145.463)
(26.1498 138.311 145.411)
(26.1478 137.927 145.326)
(26.1451 137.554 145.208)
(26.1421 137.192 145.058)
(26.1389 136.843 144.876)
(26.1367 136.598 144.723)
(26.1334 136.2 144.425)
(26.131 135.646 143.87)
(26.1345 135.196 143.227)
(26.1675 134.661 141.758)
(26.1556 134.746 142.14)
(26.1461 134.864 142.516)
(26.1392 135.015 142.879)
(26.2189 134.61 140.584)
(26.1992 134.593 140.977)
(26.182 134.61 141.37)
(26.2647 134.746 139.816)
(26.2408 134.661 140.197)
(26.4023 135.646 138.091)
(26.3455 135.196 138.732)
(26.3176 135.015 139.078)
(26.2904 134.864 139.441)
(26.4891 136.616 137.23)
(26.4566 136.2 137.538)
(26.5246 137.192 136.909)
(26.5044 136.843 137.09)
(26.5553 137.926 136.643)
(26.5417 137.554 136.76)
(26.5735 139.093 136.49)
(26.5715 138.7 136.507)
(26.5654 138.311 136.558)
(150.114 9.259 142.443)
(150.112 8.87418 142.357)
(150.117 9.63185 142.56)
(150.12 9.99376 142.711)
(150.111 8.48533 142.306)
(150.111 8.09276 142.288)
(150.111 7.69916 142.306)
(150.112 7.31135 142.357)
(150.114 6.92956 142.442)
(150.117 6.55367 142.56)
(149.774 10.5884 150.526)
(149.806 10.9853 150.23)
(149.86 11.54 149.677)
(149.917 11.9899 149.037)
(149.945 12.1707 148.691)
(149.972 12.3214 148.328)
(149.998 12.4398 147.952)
(150.021 12.5244 147.572)
(150.043 12.5755 147.184)
(150.063 12.5928 146.791)
(150.08 12.5755 146.398)
(150.095 12.5244 146.01)
(150.107 12.4398 145.629)
(150.116 12.3214 145.253)
(150.123 12.1706 144.889)
(150.128 11.9899 144.542)
(150.131 11.54 143.899)
(150.129 10.9853 143.343)
(150.125 10.5694 143.033)
(150.123 10.3428 142.893)
(149.721 6.55367 151.008)
(149.707 6.92781 151.126)
(149.738 6.19134 150.859)
(149.697 7.31135 151.21)
(149.691 7.70141 151.262)
(149.689 8.09276 151.279)
(149.691 8.48451 151.262)
(149.697 8.87418 151.21)
(149.707 9.25863 151.126)
(149.721 9.63185 151.008)
(149.738 9.99396 150.859)
(149.758 10.3428 150.678)
(150.12 6.18989 142.711)
(150.123 5.84275 142.893)
(150.126 5.59716 143.045)
(150.129 5.20022 143.343)
(149.917 4.19565 149.037)
(149.86 4.64556 149.677)
(150.131 4.64556 143.899)
(150.128 4.19565 144.542)
(150.123 4.01406 144.891)
(150.116 3.86415 145.253)
(150.107 3.74645 145.626)
(150.095 3.66113 146.01)
(150.08 3.60984 146.4)
(150.063 3.59276 146.791)
(150.044 3.60979 147.182)
(150.021 3.66113 147.572)
(149.997 3.7462 147.954)
(149.972 3.86415 148.328)
(149.945 4.01411 148.689)
(149.806 5.20022 150.23)
(149.773 5.61608 150.539)
(149.758 5.84276 150.678)
(147.687 8.48411 151.167)
(147.694 8.87418 151.116)
(148.114 9.63185 142.466)
(148.111 9.25597 142.348)
(148.118 9.99564 142.617)
(148.121 10.3428 142.799)
(148.128 10.9853 143.249)
(148.131 11.54 143.805)
(148.128 11.9899 144.448)
(148.124 12.1715 144.797)
(148.118 12.3214 145.159)
(148.109 12.4391 145.532)
(148.097 12.5244 145.917)
(148.082 12.5757 146.306)
(148.065 12.5928 146.697)
(148.046 12.5757 147.088)
(148.023 12.5244 147.478)
(147.999 12.4393 147.861)
(147.973 12.3214 148.234)
(147.946 12.1714 148.595)
(147.917 11.9899 148.943)
(147.903 11.8858 149.114)
(147.86 11.54 149.583)
(147.805 10.9853 150.136)
(147.756 10.3428 150.584)
(147.704 9.25772 151.032)
(147.718 9.63185 150.914)
(147.735 9.99417 150.765)
(147.685 8.09276 151.184)
(147.687 7.70101 151.167)
(147.694 7.31135 151.116)
(147.704 6.92689 151.031)
(147.718 6.55367 150.914)
(147.735 6.19157 150.765)
(147.756 5.84276 150.584)
(147.805 5.20022 150.136)
(147.86 4.64556 149.583)
(147.902 4.30464 149.121)
(147.917 4.19565 148.943)
(147.946 4.01485 148.597)
(147.973 3.86415 148.234)
(147.999 3.74569 147.859)
(148.023 3.66113 147.478)
(148.045 3.61 147.09)
(148.065 3.59276 146.697)
(148.082 3.61002 146.304)
(148.097 3.66113 145.917)
(148.108 3.74572 145.535)
(148.118 3.86415 145.159)
(148.124 4.01493 144.795)
(148.128 4.19565 144.448)
(148.131 4.64556 143.805)
(148.128 5.20022 143.249)
(148.121 5.84276 142.799)
(148.109 7.31135 142.263)
(148.111 6.92653 142.348)
(148.114 6.55367 142.466)
(148.118 6.19175 142.617)
(148.109 8.87418 142.263)
(148.108 8.48637 142.212)
(148.107 8.09276 142.194)
(148.108 7.70019 142.212)
(157.904 12.0928 147.159)
(157.871 12.032 147.853)
(157.84 11.8515 148.526)
(157.81 11.5569 149.157)
(157.783 11.1569 149.727)
(157.76 10.6639 150.22)
(157.742 10.0928 150.62)
(157.728 9.46084 150.914)
(157.719 8.78735 151.094)
(157.716 8.09276 151.155)
(157.719 7.39817 151.094)
(157.728 6.72468 150.914)
(157.742 6.09276 150.62)
(157.76 5.52161 150.22)
(157.783 5.02858 149.727)
(157.81 4.62866 149.157)
(157.84 4.33399 148.526)
(157.871 4.15353 147.853)
(157.904 4.09276 147.159)
(157.936 4.15353 146.465)
(157.968 4.33399 145.793)
(157.998 4.62866 145.161)
(158.025 5.02858 144.591)
(158.048 5.52161 144.098)
(158.066 6.09276 143.699)
(158.08 6.72468 143.404)
(158.089 7.39817 143.224)
(158.092 8.09276 143.164)
(158.089 8.78735 143.224)
(158.08 9.46084 143.404)
(158.066 10.0928 143.699)
(158.048 10.6639 144.098)
(158.025 11.1569 144.591)
(157.998 11.5569 145.161)
(157.968 11.8515 145.793)
(157.936 12.032 146.465)
(113.488 2.09276 198.263)
(116.788 2.09276 196.599)
(95.81 2.09276 203.391)
(103.064 2.09276 201.996)
(110.092 2.09276 199.721)
(73.7952 2.09276 202.147)
(81.0636 2.09276 203.467)
(88.4391 2.09276 203.884)
(53.7165 2.09276 193.033)
(60.0172 2.09276 196.89)
(66.7441 2.09276 199.943)
(38.2858 2.09276 177.283)
(42.7678 2.09276 183.155)
(47.9375 2.09276 188.432)
(29.5869 2.09276 157.021)
(31.645 2.09276 164.116)
(34.5593 2.09276 170.904)
(28.7947 2.09276 134.985)
(28.1509 2.09276 142.345)
(28.4163 2.09276 149.727)
(36.0163 2.09276 114.151)
(32.7575 2.09276 120.781)
(30.3381 2.09276 127.761)
(50.2762 2.09276 97.3333)
(44.8425 2.09276 102.338)
(40.0651 2.09276 107.973)
(69.6487 2.09276 86.802)
(62.774 2.09276 89.506)
(56.2837 2.09276 93.0342)
(91.5173 2.09276 83.98)
(84.1301 2.09276 84.018)
(76.8035 2.09276 84.9634)
(112.929 2.09276 89.2485)
(106.026 2.09276 86.6153)
(98.8532 2.09276 84.8502)
(130.991 2.09276 101.896)
(125.506 2.09276 96.9471)
(119.455 2.09276 92.7099)
(143.265 2.09276 120.214)
(139.938 2.09276 113.618)
(135.826 2.09276 107.481)
(148.092 2.09276 141.729)
(147.373 2.09276 134.377)
(145.756 2.09276 127.169)
(144.822 2.09276 163.535)
(146.807 2.09276 156.419)
(147.903 2.09276 149.114)
(133.895 2.09276 182.687)
(138.317 2.09276 176.769)
(141.977 2.09276 170.353)
(123.049 2.09276 192.678)
(128.78 2.09276 188.017)
(113.488 167.093 198.263)
(110.092 167.093 199.721)
(128.78 167.093 188.017)
(123.049 167.093 192.678)
(116.788 167.093 196.599)
(141.977 167.093 170.353)
(138.317 167.093 176.769)
(133.895 167.093 182.687)
(147.903 167.093 149.114)
(146.807 167.093 156.419)
(144.822 167.093 163.535)
(145.756 167.093 127.169)
(147.373 167.093 134.377)
(148.092 167.093 141.729)
(135.826 167.093 107.481)
(139.938 167.093 113.618)
(143.265 167.093 120.214)
(119.455 167.093 92.7099)
(125.506 167.093 96.9471)
(130.991 167.093 101.896)
(98.8532 167.093 84.8502)
(106.026 167.093 86.6153)
(112.929 167.093 89.2485)
(76.8035 167.093 84.9634)
(84.1301 167.093 84.018)
(91.5173 167.093 83.98)
(56.2837 167.093 93.0342)
(62.774 167.093 89.506)
(69.6487 167.093 86.802)
(40.0651 167.093 107.973)
(44.8425 167.093 102.338)
(50.2762 167.093 97.3333)
(30.3381 167.093 127.761)
(32.7575 167.093 120.781)
(36.0163 167.093 114.151)
(28.4163 167.093 149.727)
(28.1509 167.093 142.345)
(28.7947 167.093 134.985)
(34.5593 167.093 170.904)
(31.645 167.093 164.116)
(29.5869 167.093 157.021)
(47.9375 167.093 188.432)
(42.7678 167.093 183.155)
(38.2858 167.093 177.283)
(66.7441 167.093 199.943)
(60.0172 167.093 196.89)
(53.7165 167.093 193.033)
(88.4391 167.093 203.884)
(81.0636 167.093 203.467)
(73.7952 167.093 202.147)
(103.064 167.093 201.996)
(95.81 167.093 203.391)
(28.4024 142.54 138.185)
(28.4577 141.985 137.632)
(28.2629 143.44 139.91)
(28.289 143.321 139.535)
(28.2388 143.524 140.291)
(28.1655 143.524 141.852)
(28.1799 143.576 141.464)
(28.1971 143.593 141.071)
(28.2169 143.576 140.678)
(28.3165 143.171 139.172)
(28.3447 142.99 138.826)
(28.5064 141.343 137.184)
(28.527 140.994 137.003)
(28.5444 140.632 136.854)
(28.5583 140.259 136.737)
(28.5686 139.874 136.652)
(28.5748 139.485 136.601)
(28.5769 139.093 136.584)
(28.5748 138.699 136.601)
(28.5686 138.311 136.652)
(28.5584 137.93 136.736)
(28.5444 137.554 136.854)
(28.5269 137.19 137.004)
(28.3447 135.196 138.826)
(28.3163 135.014 139.173)
(28.5064 136.843 137.184)
(28.4577 136.2 137.632)
(28.4024 135.646 138.185)
(28.289 134.864 139.535)
(28.2631 134.747 139.907)
(28.2388 134.661 140.291)
(28.2167 134.61 140.68)
(28.1971 134.593 141.071)
(28.18 134.61 141.462)
(28.1381 135.014 142.972)
(28.1338 135.196 143.321)
(28.1655 134.661 141.852)
(28.1509 134.777 142.345)
(28.1447 134.864 142.609)
(28.1312 135.646 143.964)
(28.1345 136.2 144.519)
(28.1409 136.843 144.97)
(28.1445 137.191 145.152)
(28.1479 137.554 145.302)
(28.1508 137.928 145.42)
(28.153 138.311 145.506)
(28.1544 138.701 145.557)
(28.1549 139.093 145.574)
(28.1544 139.484 145.557)
(28.153 139.874 145.506)
(28.1508 140.259 145.42)
(28.1479 140.632 145.302)
(28.1445 140.994 145.152)
(28.1409 141.343 144.97)
(28.1345 141.985 144.519)
(28.1312 142.54 143.964)
(28.1338 142.99 143.321)
(28.138 143.171 142.973)
(28.1447 143.321 142.609)
(28.1509 143.409 142.345)
(14.9049 139.787 136.504)
(14.9077 139.093 136.443)
(14.8964 140.461 136.684)
(14.8826 141.093 136.978)
(14.8638 141.664 137.378)
(14.8407 142.157 137.87)
(14.8139 142.557 138.441)
(14.7843 142.852 139.072)
(14.7527 143.032 139.745)
(14.7202 143.093 140.439)
(14.6876 143.032 141.132)
(14.656 142.852 141.805)
(14.6264 142.557 142.436)
(14.5996 142.157 143.007)
(14.5765 141.664 143.499)
(14.5577 141.093 143.899)
(14.5439 140.461 144.193)
(14.5355 139.787 144.374)
(14.5326 139.093 144.434)
(14.5355 138.398 144.374)
(14.5439 137.725 144.193)
(14.5577 137.093 143.899)
(14.5765 136.522 143.499)
(14.5996 136.029 143.007)
(14.6264 135.629 142.436)
(14.656 135.334 141.805)
(14.6876 135.154 141.132)
(14.7202 135.093 140.439)
(14.7527 135.154 139.745)
(14.7843 135.334 139.072)
(14.8139 135.629 138.441)
(14.8407 136.029 137.87)
(14.8638 136.522 137.378)
(14.8826 137.093 136.978)
(14.8964 137.725 136.684)
(14.9049 138.398 136.504)
)

// edges

746
(
(0 1)
(1 2)
(2 3)
(4 5)
(5 6)
(6 0)
(7 8)
(8 9)
(9 4)
(10 11)
(11 12)
(12 7)
(13 14)
(14 15)
(15 10)
(16 17)
(17 18)
(18 13)
(19 20)
(20 21)
(21 16)
(22 23)
(23 24)
(24 19)
(25 26)
(26 27)
(27 22)
(28 29)
(29 30)
(30 25)
(31 32)
(32 33)
(33 28)
(3 34)
(34 35)
(35 31)
(36 37)
(38 39)
(37 40)
(41 38)
(40 42)
(43 41)
(42 44)
(45 43)
(44 46)
(47 45)
(46 48)
(49 47)
(48 50)
(51 49)
(50 52)
(53 51)
(52 54)
(55 53)
(54 56)
(57 55)
(56 58)
(59 57)
(58 60)
(61 59)
(60 62)
(63 61)
(62 64)
(65 63)
(64 66)
(67 65)
(66 68)
(69 67)
(68 70)
(71 69)
(70 72)
(73 71)
(72 74)
(75 73)
(74 76)
(77 75)
(76 78)
(79 77)
(80 81)
(82 80)
(81 83)
(84 85)
(86 84)
(87 86)
(85 79)
(78 82)
(83 88)
(89 87)
(88 90)
(91 89)
(90 92)
(93 91)
(92 94)
(95 93)
(94 96)
(97 95)
(96 98)
(99 97)
(98 100)
(101 99)
(100 102)
(103 101)
(102 104)
(105 103)
(104 106)
(107 105)
(106 108)
(109 107)
(108 110)
(111 109)
(110 112)
(113 111)
(112 114)
(115 113)
(114 116)
(117 115)
(116 118)
(119 117)
(118 120)
(121 119)
(120 122)
(123 121)
(122 124)
(125 123)
(124 126)
(127 125)
(126 128)
(129 127)
(128 130)
(131 129)
(132 133)
(131 132)
(133 134)
(134 135)
(135 39)
(136 137)
(138 139)
(36 138)
(139 136)
(137 130)
(140 141)
(141 142)
(142 143)
(144 145)
(145 146)
(146 140)
(147 148)
(148 149)
(149 144)
(150 151)
(151 152)
(152 147)
(153 154)
(154 155)
(155 150)
(156 157)
(157 158)
(158 153)
(159 160)
(160 161)
(161 156)
(162 163)
(163 164)
(164 159)
(165 166)
(166 167)
(167 162)
(168 169)
(169 170)
(170 165)
(171 172)
(172 173)
(173 168)
(143 174)
(174 175)
(175 171)
(176 177)
(177 178)
(178 179)
(179 180)
(180 181)
(181 182)
(182 183)
(183 184)
(184 185)
(185 186)
(186 187)
(187 188)
(188 189)
(189 190)
(190 191)
(191 192)
(192 193)
(193 194)
(194 195)
(195 196)
(196 197)
(197 198)
(198 199)
(199 200)
(200 201)
(201 202)
(202 203)
(203 204)
(204 205)
(205 206)
(206 207)
(207 208)
(208 209)
(209 210)
(210 211)
(211 176)
(212 213)
(214 212)
(215 214)
(216 215)
(217 216)
(218 217)
(219 218)
(220 219)
(221 220)
(222 221)
(223 222)
(224 223)
(225 224)
(226 225)
(227 226)
(228 227)
(229 228)
(230 229)
(231 230)
(232 231)
(233 232)
(234 233)
(235 234)
(236 235)
(237 236)
(238 237)
(239 238)
(240 239)
(241 240)
(242 241)
(243 242)
(244 243)
(245 244)
(246 245)
(247 246)
(213 247)
(248 249)
(249 250)
(250 251)
(251 252)
(252 253)
(253 254)
(254 255)
(255 256)
(256 257)
(257 258)
(258 259)
(259 260)
(260 261)
(261 262)
(263 264)
(262 263)
(264 265)
(265 266)
(266 267)
(267 268)
(268 269)
(269 270)
(270 271)
(271 272)
(272 273)
(273 274)
(274 275)
(275 276)
(276 277)
(277 278)
(278 279)
(279 280)
(281 282)
(280 281)
(283 248)
(282 283)
(284 285)
(286 284)
(287 286)
(288 287)
(289 288)
(290 289)
(291 290)
(292 291)
(293 292)
(294 293)
(295 294)
(296 295)
(297 296)
(298 297)
(299 298)
(300 299)
(301 300)
(302 301)
(303 302)
(304 303)
(305 304)
(306 305)
(307 306)
(308 307)
(309 308)
(310 309)
(311 310)
(312 311)
(313 312)
(314 313)
(315 314)
(316 315)
(317 316)
(318 317)
(319 318)
(285 319)
(320 321)
(322 323)
(324 322)
(325 324)
(326 325)
(327 326)
(328 327)
(329 328)
(330 329)
(331 330)
(321 332)
(332 333)
(333 334)
(334 331)
(335 320)
(336 335)
(337 336)
(338 337)
(339 338)
(340 339)
(341 340)
(342 341)
(343 342)
(344 343)
(345 344)
(346 345)
(347 346)
(348 347)
(349 348)
(350 349)
(351 350)
(352 351)
(353 352)
(354 353)
(355 354)
(356 355)
(357 356)
(358 357)
(359 358)
(360 359)
(361 360)
(362 363)
(363 364)
(364 365)
(365 361)
(366 367)
(367 368)
(368 362)
(369 370)
(370 366)
(371 372)
(372 373)
(373 374)
(374 369)
(375 376)
(376 371)
(377 378)
(378 375)
(379 380)
(380 377)
(323 381)
(381 382)
(382 383)
(383 379)
(384 385)
(386 384)
(387 386)
(385 388)
(388 389)
(389 390)
(390 391)
(391 392)
(392 393)
(394 395)
(395 396)
(396 397)
(397 398)
(398 399)
(399 400)
(400 401)
(401 402)
(402 403)
(403 404)
(404 405)
(405 406)
(406 407)
(407 408)
(408 409)
(409 410)
(410 411)
(411 412)
(412 413)
(413 387)
(414 415)
(416 414)
(415 417)
(417 418)
(418 419)
(419 420)
(420 421)
(421 422)
(422 423)
(423 424)
(424 425)
(425 394)
(393 426)
(426 427)
(427 428)
(428 429)
(430 431)
(429 432)
(432 433)
(433 434)
(434 435)
(435 436)
(436 437)
(437 438)
(438 439)
(439 440)
(440 441)
(441 442)
(442 443)
(443 444)
(444 430)
(431 445)
(445 446)
(446 447)
(447 416)
(448 449)
(450 451)
(452 450)
(453 452)
(454 453)
(455 454)
(456 455)
(457 456)
(458 457)
(459 458)
(460 459)
(461 460)
(462 461)
(463 462)
(464 463)
(465 464)
(466 465)
(467 466)
(468 467)
(469 468)
(470 469)
(471 470)
(472 471)
(449 473)
(473 474)
(474 475)
(475 472)
(476 448)
(477 476)
(478 477)
(479 478)
(480 479)
(481 480)
(482 481)
(483 482)
(484 483)
(485 484)
(486 485)
(487 486)
(488 487)
(489 488)
(490 489)
(491 490)
(492 491)
(493 492)
(494 493)
(495 494)
(496 495)
(497 496)
(498 497)
(499 498)
(500 499)
(501 500)
(502 503)
(503 504)
(504 505)
(505 501)
(451 506)
(506 507)
(507 508)
(508 509)
(509 502)
(510 511)
(511 512)
(512 513)
(513 514)
(514 515)
(515 516)
(516 517)
(517 518)
(518 519)
(519 520)
(520 521)
(521 522)
(522 523)
(523 524)
(524 525)
(525 526)
(526 527)
(527 528)
(528 529)
(529 530)
(530 531)
(531 532)
(532 533)
(533 534)
(534 535)
(535 536)
(536 537)
(537 538)
(538 539)
(539 540)
(540 541)
(541 542)
(542 543)
(543 544)
(544 545)
(545 510)
(546 547)
(548 549)
(549 550)
(550 546)
(551 552)
(552 553)
(553 548)
(554 555)
(555 556)
(556 551)
(557 558)
(558 559)
(559 554)
(560 561)
(561 562)
(562 557)
(563 564)
(564 565)
(565 560)
(566 567)
(567 568)
(568 563)
(569 570)
(570 571)
(571 566)
(572 573)
(573 574)
(574 569)
(575 576)
(576 577)
(577 572)
(578 579)
(579 580)
(580 575)
(581 582)
(582 583)
(583 578)
(584 585)
(585 586)
(586 581)
(587 588)
(588 589)
(589 584)
(590 591)
(591 592)
(592 587)
(593 594)
(594 595)
(595 590)
(547 596)
(596 597)
(597 593)
(598 599)
(600 601)
(601 602)
(602 598)
(603 604)
(604 605)
(605 600)
(606 607)
(607 608)
(608 603)
(609 610)
(610 611)
(611 606)
(612 613)
(613 614)
(614 609)
(615 616)
(616 617)
(617 612)
(618 619)
(619 620)
(620 615)
(621 622)
(622 623)
(623 618)
(624 625)
(625 626)
(626 621)
(627 628)
(628 629)
(629 624)
(630 631)
(631 632)
(632 627)
(633 634)
(634 635)
(635 630)
(636 637)
(637 638)
(638 633)
(639 640)
(640 641)
(641 636)
(642 643)
(643 644)
(644 639)
(645 646)
(646 647)
(647 642)
(599 648)
(648 649)
(649 645)
(650 651)
(652 653)
(654 652)
(655 656)
(656 657)
(657 658)
(658 654)
(653 659)
(659 660)
(660 650)
(651 661)
(661 662)
(662 663)
(663 664)
(664 665)
(665 666)
(667 668)
(668 669)
(669 670)
(670 671)
(671 672)
(673 674)
(672 675)
(675 676)
(676 677)
(677 673)
(674 678)
(678 679)
(679 680)
(680 681)
(681 682)
(682 683)
(684 685)
(683 686)
(686 687)
(687 688)
(688 684)
(685 689)
(689 690)
(690 691)
(691 692)
(692 693)
(693 694)
(695 696)
(696 697)
(697 698)
(698 699)
(699 700)
(700 701)
(701 702)
(702 703)
(703 704)
(704 705)
(705 706)
(706 707)
(707 708)
(708 709)
(709 655)
(694 695)
(666 667)
(710 711)
(712 710)
(713 712)
(714 713)
(715 714)
(716 715)
(717 716)
(718 717)
(719 718)
(720 719)
(721 720)
(722 721)
(723 722)
(724 723)
(725 724)
(726 725)
(727 726)
(728 727)
(729 728)
(730 729)
(731 730)
(732 731)
(733 732)
(734 733)
(735 734)
(736 735)
(737 736)
(738 737)
(739 738)
(740 739)
(741 740)
(742 741)
(743 742)
(744 743)
(745 744)
(711 745)
)

// concaveStart mixedStart nonFeatureStart
0 0 0
// internalStart flatStart openStart multipleStart
320 746 746 746
// normals

1488
(
(-0.9989 -4.8835e-07 -0.0468862)
(-0.0466443 -0.258854 0.964789)
(-0.9989 6.59471e-06 -0.046885)
(-0.0480577 -0.0871557 0.995035)
(-0.9989 -6.59562e-06 -0.046885)
(-0.0480617 0.0871676 0.995034)
(-0.9989 -1.0451e-06 -0.0468882)
(-0.033151 -0.707175 0.706261)
(-0.9989 3.84308e-06 -0.0468841)
(-0.0396701 -0.573522 0.818229)
(-0.9989 1.14844e-06 -0.0468856)
(-0.0438479 -0.422587 0.905261)
(-0.9989 -1.82742e-06 -0.0468897)
(-0.0121331 -0.965935 0.258498)
(-0.9989 4.66598e-08 -0.0468845)
(-0.0198123 -0.906307 0.422155)
(-0.9989 -4.30205e-06 -0.046892)
(-0.0268993 -0.819087 0.573039)
(-0.9989 -8.80229e-07 -0.0468822)
(0.010768 -0.965927 -0.258592)
(-0.9989 -0 -0.0468872)
(0.00271076 -0.996201 -0.0870358)
(-0.998901 -0 -0.0468793)
(-0.00408288 -0.996202 0.0869816)
(-0.9989 -2.69611e-06 -0.0468825)
(0.0331556 -0.707116 -0.70632)
(-0.9989 4.95571e-06 -0.0468916)
(0.0268971 -0.819087 -0.573039)
(-0.998901 -1.61215e-06 -0.0468802)
(0.0184462 -0.906324 -0.422181)
(-0.9989 1.59661e-06 -0.0468856)
(0.0439333 -0.258836 -0.964922)
(-0.9989 -7.43799e-07 -0.0468847)
(0.0411417 -0.422587 -0.905388)
(-0.9989 1.71328e-06 -0.0468862)
(0.0371867 -0.573614 -0.818281)
(-0.9989 -1.59644e-06 -0.0468856)
(0.043934 0.258807 -0.964929)
(-0.9989 7.72666e-06 -0.046884)
(0.0453528 0.0871675 -0.995161)
(-0.9989 -7.72561e-06 -0.046884)
(0.0453529 -0.0871557 -0.995162)
(-0.9989 2.69591e-06 -0.0468825)
(0.0331513 0.707058 -0.706378)
(-0.9989 -1.71348e-06 -0.0468862)
(0.0371385 0.573678 -0.818239)
(-0.9989 7.43787e-07 -0.0468847)
(0.0411462 0.42258 -0.905391)
(-0.9989 8.8025e-07 -0.0468822)
(0.0121345 0.965928 -0.258528)
(-0.998901 1.61218e-06 -0.0468802)
(0.0198105 0.906325 -0.422118)
(-0.9989 -4.9561e-06 -0.0468916)
(0.0268956 0.819142 -0.57296)
(-0.9989 1.82747e-06 -0.0468897)
(-0.0134977 0.965935 0.258434)
(-0.998901 0 -0.0468793)
(-0.00545381 0.996189 0.0870525)
(-0.9989 0 -0.0468872)
(0.00408874 0.996191 -0.0871064)
(-0.9989 1.04502e-06 -0.0468882)
(-0.0331556 0.707116 0.706319)
(-0.9989 4.30238e-06 -0.046892)
(-0.0268935 0.819142 0.57296)
(-0.9989 -4.66608e-08 -0.0468845)
(-0.0211771 0.906306 0.42209)
(-0.9989 4.88296e-07 -0.0468862)
(-0.0466404 0.258825 0.964797)
(-0.9989 -1.14842e-06 -0.0468856)
(-0.0438473 0.42258 0.905264)
(-0.9989 -3.84353e-06 -0.0468841)
(-0.0396153 0.573586 0.818187)
(0.950584 0 -0.310467)
(-0 -1 0)
(0.950584 0 -0.310467)
(0 1 -0)
(0.906237 0 -0.422771)
(0 -1 0)
(0.906237 0 -0.422771)
(0 1 -0)
(0.848672 0 -0.528919)
(0 -1 0)
(0.848672 0 -0.528919)
(0 1 0)
(0.778747 0 -0.627339)
(0 -1 0)
(0.778747 0 -0.627339)
(0 1 0)
(0.697443 0 -0.71664)
(0 -1 0)
(0.697443 0 -0.71664)
(0 1 0)