/*--------------------------------*- C++ -*----------------------------------*\
  =========                 |
  \\      /  F ield         | OpenFOAM: The Open Source CFD Toolbox
   \\    /   O peration     | Website:  https://openfoam.org
    \\  /    A nd           | Version:  9
     \\/     M anipulation  |
\*---------------------------------------------------------------------------*/
FoamFile
{
    format      ascii;
    class       featureEdgeMesh;
    location    "constant/triSurface";
    object      drafttube.eMesh;
}
// * * * * * * * * * * * * * * * * * * * * * * * * * * * * * * * * * * * * * //


// points:

308
(
(661.193 535.812 1140.12)
(661.193 535.812 1092.12)
(578.055 535.812 1092.12)
(578.055 535.812 1140.12)
(619.624 535.812 1166.12)
(619.624 535.812 1066.12)
(619.624 535.812 1164.12)
(619.624 535.812 1068.12)
(623.274 535.812 1165.99)
(615.974 285.812 1165.99)
(619.624 285.812 1166.12)
(615.974 535.812 1165.99)
(608.753 535.812 1164.93)
(608.753 285.812 1164.93)
(601.763 535.812 1162.82)
(601.763 285.812 1162.82)
(595.153 535.812 1159.73)
(595.153 285.812 1159.73)
(589.065 535.812 1155.7)
(589.065 285.812 1155.7)
(583.629 535.812 1150.83)
(583.629 285.812 1150.83)
(578.96 535.812 1145.22)
(578.96 285.812 1145.22)
(575.157 535.812 1138.99)
(575.157 285.812 1138.99)
(572.302 535.812 1132.27)
(572.302 285.812 1132.27)
(570.456 535.812 1125.21)
(570.456 285.812 1125.21)
(569.657 535.812 1117.95)
(569.657 285.812 1117.95)
(569.924 535.812 1110.66)
(569.924 285.812 1110.66)
(571.25 535.812 1103.48)
(571.25 285.812 1103.48)
(573.607 535.812 1096.57)
(573.607 285.812 1096.57)
(576.944 535.812 1090.08)
(576.944 285.812 1090.08)
(581.192 535.812 1084.14)
(581.192 285.812 1084.14)
(586.258 535.812 1078.89)
(586.258 285.812 1078.89)
(592.036 535.812 1074.42)
(592.036 285.812 1074.42)
(598.401 535.812 1070.85)
(598.401 285.812 1070.85)
(605.219 535.812 1068.24)
(605.219 285.812 1068.24)
(612.344 535.812 1066.66)
(612.344 285.812 1066.66)
(619.624 285.812 1066.12)
(626.904 535.812 1066.66)
(626.904 285.812 1066.66)
(634.029 535.812 1068.24)
(634.029 285.812 1068.24)
(640.847 535.812 1070.85)
(640.847 285.812 1070.85)
(647.213 535.812 1074.42)
(647.213 285.812 1074.42)
(652.99 535.812 1078.89)
(652.99 285.812 1078.89)
(658.056 535.812 1084.14)
(658.056 285.812 1084.14)
(662.304 535.812 1090.08)
(662.304 285.812 1090.08)
(665.641 535.812 1096.57)
(665.641 285.812 1096.57)
(667.998 535.812 1103.48)
(667.998 285.812 1103.48)
(669.324 535.812 1110.66)
(669.324 285.812 1110.66)
(669.591 535.812 1117.95)
(669.591 285.812 1117.95)
(668.792 535.812 1125.21)
(668.792 285.812 1125.21)
(666.946 535.812 1132.27)
(666.946 285.812 1132.27)
(664.091 535.812 1138.99)
(664.091 285.812 1138.99)
(660.289 535.812 1145.22)
(660.289 285.812 1145.22)
(655.619 535.812 1150.83)
(655.619 285.812 1150.83)
(650.183 535.812 1155.7)
(650.183 285.812 1155.7)
(644.095 535.812 1159.73)
(644.095 285.812 1159.73)
(637.486 535.812 1162.82)
(637.486 285.812 1162.82)
(630.496 535.812 1164.93)
(630.496 285.812 1164.93)
(623.274 285.812 1165.99)
(626.778 535.812 1163.59)
(633.772 535.812 1161.99)
(640.451 535.812 1159.37)
(646.663 535.812 1155.78)
(652.272 535.812 1151.31)
(657.152 535.812 1146.05)
(664.306 535.812 1133.66)
(666.421 535.812 1126.81)
(667.49 535.812 1119.71)
(667.49 535.812 1112.54)
(666.421 535.812 1105.44)
(664.306 535.812 1098.59)
(657.152 535.812 1086.2)
(652.272 535.812 1080.94)
(646.663 535.812 1076.46)
(640.451 535.812 1072.88)
(633.772 535.812 1070.26)
(626.778 535.812 1068.66)
(612.47 535.812 1068.66)
(605.476 535.812 1070.26)
(598.798 535.812 1072.88)
(592.585 535.812 1076.46)
(586.976 535.812 1080.94)
(582.096 535.812 1086.2)
(574.942 535.812 1098.59)
(572.828 535.812 1105.44)
(571.758 535.812 1112.54)
(571.758 535.812 1119.71)
(572.828 535.812 1126.81)
(574.942 535.812 1133.66)
(582.096 535.812 1146.05)
(586.976 535.812 1151.31)
(592.585 535.812 1155.78)
(598.798 535.812 1159.37)
(605.476 535.812 1161.99)
(612.47 535.812 1163.59)
(612.47 285.812 1163.59)
(619.624 285.812 1164.12)
(605.476 285.812 1161.99)
(598.798 285.812 1159.37)
(592.585 285.812 1155.78)
(586.976 285.812 1151.31)
(582.096 285.812 1146.05)
(578.055 285.812 1140.12)
(574.942 285.812 1133.66)
(572.828 285.812 1126.81)
(571.758 285.812 1119.71)
(571.758 285.812 1112.54)
(572.828 285.812 1105.44)
(574.942 285.812 1098.59)
(578.055 285.812 1092.12)
(582.096 285.812 1086.2)
(586.976 285.812 1080.94)
(592.585 285.812 1076.46)
(598.798 285.812 1072.88)
(605.476 285.812 1070.26)
(612.47 285.812 1068.66)
(619.624 285.812 1068.12)
(626.778 285.812 1068.66)
(633.772 285.812 1070.26)
(640.451 285.812 1072.88)
(646.663 285.812 1076.46)
(652.272 285.812 1080.94)
(657.152 285.812 1086.2)
(661.193 285.812 1092.12)
(664.306 285.812 1098.59)
(666.421 285.812 1105.44)
(667.49 285.812 1112.54)
(667.49 285.812 1119.71)
(666.421 285.812 1126.81)
(664.306 285.812 1133.66)
(661.193 285.812 1140.12)
(657.152 285.812 1146.05)
(652.272 285.812 1151.31)
(646.663 285.812 1155.78)
(640.451 285.812 1159.37)
(633.772 285.812 1161.99)
(626.778 285.812 1163.59)
(628.307 535.812 1066.88)
(628.307 945.812 1066.88)
(636.725 945.812 1069.14)
(636.725 535.812 1069.14)
(644.624 945.812 1072.82)
(644.624 535.812 1072.82)
(651.763 945.812 1077.82)
(651.763 535.812 1077.82)
(657.926 945.812 1083.98)
(657.926 535.812 1083.98)
(662.925 945.812 1091.12)
(662.925 535.812 1091.12)
(666.609 945.812 1099.02)
(666.609 535.812 1099.02)
(668.865 945.812 1107.44)
(668.865 535.812 1107.44)
(669.624 945.812 1116.12)
(669.624 535.812 1116.12)
(668.865 945.812 1124.81)
(668.865 535.812 1124.81)
(666.609 945.812 1133.22)
(666.609 535.812 1133.22)
(662.925 945.812 1141.12)
(662.925 535.812 1141.12)
(657.926 945.812 1148.26)
(657.926 535.812 1148.26)
(651.763 945.812 1154.43)
(651.763 535.812 1154.43)
(644.624 945.812 1159.43)
(644.624 535.812 1159.43)
(636.725 945.812 1163.11)
(636.725 535.812 1163.11)
(628.307 945.812 1165.36)
(628.307 535.812 1165.36)
(619.624 945.812 1166.12)
(610.942 945.812 1165.36)
(610.942 535.812 1165.36)
(602.523 945.812 1163.11)
(602.523 535.812 1163.11)
(594.624 945.812 1159.43)
(594.624 535.812 1159.43)
(587.485 945.812 1154.43)
(587.485 535.812 1154.43)
(581.322 945.812 1148.26)
(581.322 535.812 1148.26)
(576.323 945.812 1141.12)
(576.323 535.812 1141.12)
(572.639 945.812 1133.22)
(572.639 535.812 1133.22)
(570.384 945.812 1124.81)
(570.384 535.812 1124.81)
(569.624 945.812 1116.12)
(569.624 535.812 1116.12)
(570.384 945.812 1107.44)
(570.384 535.812 1107.44)
(572.639 945.812 1099.02)
(572.639 535.812 1099.02)
(576.323 945.812 1091.12)
(576.323 535.812 1091.12)
(581.322 945.812 1083.98)
(581.322 535.812 1083.98)
(587.485 945.812 1077.82)
(587.485 535.812 1077.82)
(594.624 945.812 1072.82)
(594.624 535.812 1072.82)
(602.523 945.812 1069.14)
(602.523 535.812 1069.14)
(610.942 945.812 1066.88)
(610.942 535.812 1066.88)
(619.624 945.812 1066.12)
(656.394 945.812 1146.98)
(650.478 945.812 1152.89)
(661.193 945.812 1140.12)
(664.729 945.812 1132.54)
(666.895 945.812 1124.46)
(667.624 945.812 1116.12)
(666.895 945.812 1107.79)
(664.729 945.812 1099.71)
(661.193 945.812 1092.12)
(656.394 945.812 1085.27)
(650.478 945.812 1079.35)
(643.624 945.812 1074.56)
(636.041 945.812 1071.02)
(627.959 945.812 1068.85)
(619.624 945.812 1068.12)
(611.289 945.812 1068.85)
(603.207 945.812 1071.02)
(595.624 945.812 1074.56)
(588.77 945.812 1079.35)
(582.854 945.812 1085.27)
(578.055 945.812 1092.12)
(574.519 945.812 1099.71)
(572.353 945.812 1107.79)
(571.624 945.812 1116.12)
(572.353 945.812 1124.46)
(574.519 945.812 1132.54)
(578.055 945.812 1140.12)
(582.854 945.812 1146.98)
(588.77 945.812 1152.89)
(595.624 945.812 1157.69)
(603.207 945.812 1161.23)
(611.289 945.812 1163.4)
(619.624 945.812 1164.12)
(627.959 945.812 1163.4)
(636.041 945.812 1161.23)
(643.624 945.812 1157.69)
(656.394 535.812 1085.27)
(664.729 535.812 1099.71)
(666.895 535.812 1107.79)
(667.624 535.812 1116.12)
(666.895 535.812 1124.46)
(664.729 535.812 1132.54)
(656.394 535.812 1146.98)
(650.478 535.812 1152.89)
(643.624 535.812 1157.69)
(636.041 535.812 1161.23)
(627.959 535.812 1163.4)
(611.289 535.812 1163.4)
(603.207 535.812 1161.23)
(595.624 535.812 1157.69)
(588.77 535.812 1152.89)
(582.854 535.812 1146.98)
(574.519 535.812 1132.54)
(572.353 535.812 1124.46)
(571.624 535.812 1116.12)
(572.353 535.812 1107.79)
(574.519 535.812 1099.71)
(582.854 535.812 1085.27)
(588.77 535.812 1079.35)
(595.624 535.812 1074.56)
(603.207 535.812 1071.02)
(611.289 535.812 1068.85)
(627.959 535.812 1068.85)
(636.041 535.812 1071.02)
(643.624 535.812 1074.56)
(650.478 535.812 1079.35)
)


// edges:

318
(
(8 4)
(9 10)
(4 11)
(11 12)
(13 9)
(12 14)
(15 13)
(14 16)
(17 15)
(16 18)
(19 17)
(18 20)
(21 19)
(20 22)
(23 21)
(22 24)
(25 23)
(24 26)
(27 25)
(26 28)
(29 27)
(28 30)
(31 29)
(30 32)
(33 31)
(32 34)
(35 33)
(34 36)
(37 35)
(36 38)
(39 37)
(38 40)
(41 39)
(40 42)
(43 41)
(42 44)
(45 43)
(44 46)
(47 45)
(46 48)
(49 47)
(48 50)
(51 49)
(50 5)
(52 51)
(5 53)
(54 52)
(53 55)
(56 54)
(55 57)
(58 56)
(57 59)
(60 58)
(59 61)
(62 60)
(61 63)
(64 62)
(63 65)
(66 64)
(65 67)
(68 66)
(67 69)
(70 68)
(69 71)
(72 70)
(71 73)
(74 72)
(73 75)
(76 74)
(75 77)
(78 76)
(77 79)
(80 78)
(79 81)
(82 80)
(81 83)
(84 82)
(83 85)
(86 84)
(85 87)
(88 86)
(87 89)
(90 88)
(89 91)
(92 90)
(91 8)
(93 92)
(10 93)
(94 6)
(95 94)
(96 95)
(97 96)
(98 97)
(99 98)
(0 99)
(100 0)
(101 100)
(102 101)
(103 102)
(104 103)
(105 104)
(1 105)
(106 1)
(107 106)
(108 107)
(109 108)
(110 109)
(111 110)
(7 111)
(112 7)
(113 112)
(114 113)
(115 114)
(116 115)
(117 116)
(2 117)
(118 2)
(119 118)
(120 119)
(121 120)
(122 121)
(123 122)
(3 123)
(124 3)
(125 124)
(126 125)
(127 126)
(128 127)
(129 128)
(6 129)
(130 131)
(132 130)
(133 132)
(134 133)
(135 134)
(136 135)
(137 136)
(138 137)
(139 138)
(140 139)
(141 140)
(142 141)
(143 142)
(144 143)
(145 144)
(146 145)
(147 146)
(148 147)
(149 148)
(150 149)
(151 150)
(152 151)
(153 152)
(154 153)
(155 154)
(156 155)
(157 156)
(158 157)
(159 158)
(160 159)
(161 160)
(162 161)
(163 162)
(164 163)
(165 164)
(166 165)
(167 166)
(168 167)
(169 168)
(170 169)
(171 170)
(131 171)
(172 5)
(173 174)
(175 172)
(174 176)
(177 175)
(176 178)
(179 177)
(178 180)
(181 179)
(180 182)
(183 181)
(182 184)
(185 183)
(184 186)
(187 185)
(186 188)
(189 187)
(188 190)
(191 189)
(190 192)
(193 191)
(192 194)
(195 193)
(194 196)
(197 195)
(196 198)
(199 197)
(198 200)
(201 199)
(200 202)
(203 201)
(202 204)
(205 203)
(204 206)
(4 205)
(206 207)
(208 4)
(207 209)
(210 208)
(209 211)
(212 210)
(211 213)
(214 212)
(213 215)
(216 214)
(215 217)
(218 216)
(217 219)
(220 218)
(219 221)
(222 220)
(221 223)
(224 222)
(223 225)
(226 224)
(225 227)
(228 226)
(227 229)
(230 228)
(229 231)
(232 230)
(231 233)
(234 232)
(233 235)
(236 234)
(235 237)
(238 236)
(237 239)
(240 238)
(239 241)
(5 240)
(241 173)
(242 243)
(244 242)
(245 244)
(246 245)
(247 246)
(248 247)
(249 248)
(250 249)
(251 250)
(252 251)
(253 252)
(254 253)
(255 254)
(256 255)
(257 256)
(258 257)
(259 258)
(260 259)
(261 260)
(262 261)
(263 262)
(264 263)
(265 264)
(266 265)
(267 266)
(268 267)
(269 268)
(270 269)
(271 270)
(272 271)
(273 272)
(274 273)
(275 274)
(276 275)
(277 276)
(243 277)
(1 278)
(279 1)
(280 279)
(281 280)
(282 281)
(283 282)
(0 283)
(284 0)
(285 284)
(286 285)
(287 286)
(288 287)
(6 288)
(289 6)
(290 289)
(291 290)
(292 291)
(293 292)
(3 293)
(294 3)
(295 294)
(296 295)
(297 296)
(298 297)
(2 298)
(299 2)
(300 299)
(301 300)
(302 301)
(303 302)
(7 303)
(304 7)
(305 304)
(306 305)
(307 306)
(278 307)
(4 6)
(5 7)
)

// * * * * * * * * * * * * * * * * * * * * * * * * * * * * * * * * * * * * * //


// ************************************************************************* //
