/*--------------------------------*- C++ -*----------------------------------*\
  =========                 |
  \\      /  F ield         | OpenFOAM: The Open Source CFD Toolbox
   \\    /   O peration     | Website:  https://openfoam.org
    \\  /    A nd           | Version:  9
     \\/     M anipulation  |
\*---------------------------------------------------------------------------*/
FoamFile
{
    format      ascii;
    class       featureEdgeMesh;
    location    "constant/triSurface";
    object      vessel.eMesh;
}
// * * * * * * * * * * * * * * * * * * * * * * * * * * * * * * * * * * * * * //


// points:

144
(
(636.989 205.812 1017.64)
(619.624 205.812 1016.12)
(636.989 1405.81 1017.64)
(653.826 1405.81 1022.16)
(653.826 205.812 1022.16)
(669.624 1405.81 1029.52)
(669.624 205.812 1029.52)
(683.903 1405.81 1039.52)
(683.903 205.812 1039.52)
(696.229 1405.81 1051.84)
(696.229 205.812 1051.84)
(706.227 1405.81 1066.12)
(706.227 205.812 1066.12)
(713.593 1405.81 1081.92)
(713.593 205.812 1081.92)
(718.105 1405.81 1098.76)
(718.105 205.812 1098.76)
(719.624 1405.81 1116.12)
(719.624 205.812 1116.12)
(718.105 1405.81 1133.49)
(718.105 205.812 1133.49)
(713.593 1405.81 1150.33)
(713.593 205.812 1150.33)
(706.227 1405.81 1166.12)
(706.227 205.812 1166.12)
(696.229 1405.81 1180.4)
(696.229 205.812 1180.4)
(683.903 1405.81 1192.73)
(683.903 205.812 1192.73)
(669.624 1405.81 1202.73)
(669.624 205.812 1202.73)
(653.826 1405.81 1210.09)
(653.826 205.812 1210.09)
(636.989 1405.81 1214.6)
(636.989 205.812 1214.6)
(619.624 1405.81 1216.12)
(619.624 205.812 1216.12)
(602.259 1405.81 1214.6)
(602.259 205.812 1214.6)
(585.422 1405.81 1210.09)
(585.422 205.812 1210.09)
(569.624 1405.81 1202.73)
(569.624 205.812 1202.73)
(555.345 1405.81 1192.73)
(555.345 205.812 1192.73)
(543.02 1405.81 1180.4)
(543.02 205.812 1180.4)
(533.021 1405.81 1166.12)
(533.021 205.812 1166.12)
(525.655 1405.81 1150.33)
(525.655 205.812 1150.33)
(521.143 1405.81 1133.49)
(521.143 205.812 1133.49)
(519.624 1405.81 1116.12)
(519.624 205.812 1116.12)
(521.143 1405.81 1098.76)
(521.143 205.812 1098.76)
(525.655 1405.81 1081.92)
(525.655 205.812 1081.92)
(533.021 1405.81 1066.12)
(533.021 205.812 1066.12)
(543.02 1405.81 1051.84)
(543.02 205.812 1051.84)
(555.345 1405.81 1039.52)
(555.345 205.812 1039.52)
(569.624 1405.81 1029.52)
(569.624 205.812 1029.52)
(585.422 1405.81 1022.16)
(585.422 205.812 1022.16)
(602.259 1405.81 1017.64)
(602.259 205.812 1017.64)
(619.624 1405.81 1016.12)
(652.458 1403.81 1206.33)
(636.294 1403.81 1210.67)
(619.624 1403.81 1212.12)
(602.954 1403.81 1210.67)
(693.164 1403.81 1177.83)
(681.332 1403.81 1189.66)
(667.624 1403.81 1199.26)
(714.166 1403.81 1132.79)
(709.835 1403.81 1148.96)
(702.763 1403.81 1164.12)
(709.835 1403.81 1083.29)
(714.166 1403.81 1099.45)
(715.624 1403.81 1116.12)
(681.332 1403.81 1042.58)
(693.164 1403.81 1054.42)
(702.763 1403.81 1068.12)
(636.294 1403.81 1021.58)
(652.458 1403.81 1025.91)
(667.624 1403.81 1032.98)
(586.79 1403.81 1025.91)
(602.954 1403.81 1021.58)
(619.624 1403.81 1020.12)
(546.084 1403.81 1054.42)
(557.917 1403.81 1042.58)
(571.624 1403.81 1032.98)
(525.083 1403.81 1099.45)
(529.414 1403.81 1083.29)
(536.486 1403.81 1068.12)
(529.414 1403.81 1148.96)
(525.083 1403.81 1132.79)
(523.624 1403.81 1116.12)
(557.917 1403.81 1189.66)
(546.084 1403.81 1177.83)
(536.486 1403.81 1164.12)
(586.79 1403.81 1206.33)
(571.624 1403.81 1199.26)
(652.458 208.812 1025.91)
(636.294 208.812 1021.58)
(619.624 208.812 1020.12)
(602.954 208.812 1021.58)
(693.164 208.812 1054.42)
(681.332 208.812 1042.58)
(667.624 208.812 1032.98)
(714.166 208.812 1099.45)
(709.835 208.812 1083.29)
(702.763 208.812 1068.12)
(709.835 208.812 1148.96)
(714.166 208.812 1132.79)
(715.624 208.812 1116.12)
(681.332 208.812 1189.66)
(693.164 208.812 1177.83)
(702.763 208.812 1164.12)
(636.294 208.812 1210.67)
(652.458 208.812 1206.33)
(667.624 208.812 1199.26)
(586.79 208.812 1206.33)
(602.954 208.812 1210.67)
(619.624 208.812 1212.12)
(546.084 208.812 1177.83)
(557.917 208.812 1189.66)
(571.624 208.812 1199.26)
(525.083 208.812 1132.79)
(529.414 208.812 1148.96)
(536.486 208.812 1164.12)
(529.414 208.812 1083.29)
(525.083 208.812 1099.45)
(523.624 208.812 1116.12)
(557.917 208.812 1042.58)
(546.084 208.812 1054.42)
(536.486 208.812 1068.12)
(586.79 208.812 1025.91)
(571.624 208.812 1032.98)
)


// edges:

144
(
(0 1)
(2 3)
(4 0)
(3 5)
(6 4)
(5 7)
(8 6)
(7 9)
(10 8)
(9 11)
(12 10)
(11 13)
(14 12)
(13 15)
(16 14)
(15 17)
(18 16)
(17 19)
(20 18)
(19 21)
(22 20)
(21 23)
(24 22)
(23 25)
(26 24)
(25 27)
(28 26)
(27 29)
(30 28)
(29 31)
(32 30)
(31 33)
(34 32)
(33 35)
(36 34)
(35 37)
(38 36)
(37 39)
(40 38)
(39 41)
(42 40)
(41 43)
(44 42)
(43 45)
(46 44)
(45 47)
(48 46)
(47 49)
(50 48)
(49 51)
(52 50)
(51 53)
(54 52)
(53 55)
(56 54)
(55 57)
(58 56)
(57 59)
(60 58)
(59 61)
(62 60)
(61 63)
(64 62)
(63 65)
(66 64)
(65 67)
(68 66)
(67 69)
(70 68)
(69 71)
(1 70)
(71 2)
(72 73)
(73 74)
(74 75)
(76 77)
(77 78)
(78 72)
(79 80)
(80 81)
(81 76)
(82 83)
(83 84)
(84 79)
(85 86)
(86 87)
(87 82)
(88 89)
(89 90)
(90 85)
(91 92)
(92 93)
(93 88)
(94 95)
(95 96)
(96 91)
(97 98)
(98 99)
(99 94)
(100 101)
(101 102)
(102 97)
(103 104)
(104 105)
(105 100)
(75 106)
(106 107)
(107 103)
(108 109)
(109 110)
(110 111)
(112 113)
(113 114)
(114 108)
(115 116)
(116 117)
(117 112)
(118 119)
(119 120)
(120 115)
(121 122)
(122 123)
(123 118)
(124 125)
(125 126)
(126 121)
(127 128)
(128 129)
(129 124)
(130 131)
(131 132)
(132 127)
(133 134)
(134 135)
(135 130)
(136 137)
(137 138)
(138 133)
(139 140)
(140 141)
(141 136)
(111 142)
(142 143)
(143 139)
)

// * * * * * * * * * * * * * * * * * * * * * * * * * * * * * * * * * * * * * //


// ************************************************************************* //
