/*--------------------------------*- C++ -*----------------------------------*\
  =========                 |
  \\      /  F ield         | OpenFOAM: The Open Source CFD Toolbox
   \\    /   O peration     | Website:  https://openfoam.org
    \\  /    A nd           | Version:  7
     \\/     M anipulation  |
\*---------------------------------------------------------------------------*/
FoamFile
{
    version     2.0;
    format      ascii;
    class       volScalarField;
    object      p;
}
// * * * * * * * * * * * * * * * * * * * * * * * * * * * * * * * * * * * * * //

dimensions          [1 -1 -2 0 0 0 0];

internalField       uniform 1e5;

boundaryField
{
    inlet
    {
        type               calculated;
        value              $internalField;
    }
    outlet
    {
        type              calculated;// fixedValue;
        value              $internalField;//uniform 1e5;
    }
  impeller
    {
        type               calculated;
        value              $internalField;
    }

    vessel
    {
        type               calculated;
        value              $internalField;
    }
baffles
  {
        type               calculated;
        value              $internalField;
    }

}

// * * * * * * * * * * * * * * * * * * * * * * * * * * * * * * * * * * * * * //
