/*--------------------------------*- C++ -*----------------------------------*\
  =========                 |
  \\      /  F ield         | OpenFOAM: The Open Source CFD Toolbox
   \\    /   O peration     | Website:  https://openfoam.org
    \\  /    A nd           | Version:  9
     \\/     M anipulation  |
\*---------------------------------------------------------------------------*/
FoamFile
{
    format      ascii;
    class       extendedFeatureEdgeMesh;
    location    "constant/extendedFeatureEdgeMesh";
    object      inlet.extendedFeatureEdgeMesh;
}
// * * * * * * * * * * * * * * * * * * * * * * * * * * * * * * * * * * * * * //

// points

124
(
(868.59998 6.3000021 784.59998)
(860.10193 6.3000021 785.03101)
(877.09808 6.3000021 785.03101)
(901.72589 6.3000021 791.40759)
(893.74652 6.3000021 788.45227)
(885.50909 6.3000021 786.31952)
(923.31531 6.3000021 804.86432)
(916.58649 6.3000021 799.65588)
(909.36542 6.3000021 795.15491)
(939.88611 6.3000021 824.16699)
(935.02521 6.3000021 817.18311)
(929.4826 6.3000021 810.72681)
(949.91852 6.3000021 847.54523)
(947.37122 6.3000021 839.42639)
(944.01562 6.3000021 831.60687)
(952.49219 6.3000021 872.85449)
(952.49219 6.3000021 864.34552)
(951.63141 6.3000021 855.88013)
(947.37122 6.3000021 897.77368)
(949.91852 6.3000021 889.65479)
(951.63141 6.3000021 881.31989)
(935.02521 6.3000021 920.01691)
(939.88611 6.3000021 913.03302)
(944.01562 6.3000021 905.59308)
(916.58649 6.3000021 937.54413)
(923.31531 6.3000021 932.33569)
(929.4826 6.3000021 926.47321)
(893.74652 6.3000021 948.74768)
(901.72589 6.3000021 945.79248)
(909.36542 6.3000021 942.0451)
(868.59998 6.3000021 952.59998)
(877.09808 6.3000021 952.16901)
(885.50909 6.3000021 950.88049)
(843.45349 6.3000021 948.74768)
(851.69092 6.3000021 950.88049)
(860.10193 6.3000021 952.16901)
(820.61353 6.3000021 937.54413)
(827.83459 6.3000021 942.0451)
(835.47412 6.3000021 945.79248)
(802.17493 6.3000021 920.01691)
(807.71741 6.3000021 926.47321)
(813.8847 6.3000021 932.33569)
(789.8288 6.3000021 897.77368)
(793.18439 6.3000021 905.59308)
(797.3139 6.3000021 913.03302)
(784.70782 6.3000021 872.85449)
(785.56873 6.3000021 881.31989)
(787.28149 6.3000021 889.65479)
(787.28149 6.3000021 847.54523)
(785.56873 6.3000021 855.88013)
(784.70782 6.3000021 864.34552)
(797.3139 6.3000021 824.16699)
(793.18439 6.3000021 831.60687)
(789.8288 6.3000021 839.42639)
(813.8847 6.3000021 804.86432)
(807.71741 6.3000021 810.72681)
(802.17493 6.3000021 817.18311)
(835.47412 6.3000021 791.40759)
(827.83459 6.3000021 795.15491)
(820.61353 6.3000021 799.65588)
(851.69092 6.3000021 786.31952)
(843.45349 6.3000021 788.45227)
(877.09808 4.2999978 785.03101)
(868.59998 4.2999978 784.59998)
(885.50909 4.2999978 786.31952)
(893.74652 4.2999978 788.45227)
(901.72589 4.2999978 791.40759)
(909.36542 4.2999978 795.15491)
(916.58649 4.2999978 799.65588)
(923.31531 4.2999978 804.86432)
(929.4826 4.2999978 810.72681)
(935.02521 4.2999978 817.18311)
(939.88611 4.2999978 824.16699)
(944.01562 4.2999978 831.60687)
(947.37122 4.2999978 839.42639)
(949.91852 4.2999978 847.54523)
(951.63141 4.2999978 855.88013)
(952.49219 4.2999978 864.34552)
(952.49219 4.2999978 872.85449)
(951.63141 4.2999978 881.31989)
(949.91852 4.2999978 889.65479)
(947.37122 4.2999978 897.77368)
(944.01562 4.2999978 905.59308)
(939.88611 4.2999978 913.03302)
(935.02521 4.2999978 920.01691)
(929.4826 4.2999978 926.47321)
(923.31531 4.2999978 932.33569)
(916.58649 4.2999978 937.54413)
(909.36542 4.2999978 942.0451)
(901.72589 4.2999978 945.79248)
(893.74652 4.2999978 948.74768)
(885.50909 4.2999978 950.88049)
(877.09808 4.2999978 952.16901)
(868.59998 4.2999978 952.59998)
(860.10193 4.2999978 952.16901)
(851.69092 4.2999978 950.88049)
(843.45349 4.2999978 948.74768)
(835.47412 4.2999978 945.79248)
(827.83459 4.2999978 942.0451)
(820.61353 4.2999978 937.54413)
(813.8847 4.2999978 932.33569)
(807.71741 4.2999978 926.47321)
(802.17493 4.2999978 920.01691)
(797.3139 4.2999978 913.03302)
(793.18439 4.2999978 905.59308)
(789.8288 4.2999978 897.77368)
(787.28149 4.2999978 889.65479)
(785.56873 4.2999978 881.31989)
(784.70782 4.2999978 872.85449)
(784.70782 4.2999978 864.34552)
(785.56873 4.2999978 855.88013)
(787.28149 4.2999978 847.54523)
(789.8288 4.2999978 839.42639)
(793.18439 4.2999978 831.60687)
(797.3139 4.2999978 824.16699)
(802.17493 4.2999978 817.18311)
(807.71741 4.2999978 810.72681)
(813.8847 4.2999978 804.86432)
(820.61353 4.2999978 799.65588)
(827.83459 4.2999978 795.15491)
(835.47412 4.2999978 791.40759)
(843.45349 4.2999978 788.45227)
(851.69092 4.2999978 786.31952)
(860.10193 4.2999978 785.03101)
)

// edges

124
(
(0 1)
(2 0)
(3 4)
(4 5)
(5 2)
(6 7)
(7 8)
(8 3)
(9 10)
(10 11)
(11 6)
(12 13)
(13 14)
(14 9)
(15 16)
(16 17)
(17 12)
(18 19)
(19 20)
(20 15)
(21 22)
(22 23)
(23 18)
(24 25)
(25 26)
(26 21)
(27 28)
(28 29)
(29 24)
(30 31)
(31 32)
(32 27)
(33 34)
(34 35)
(35 30)
(36 37)
(37 38)
(38 33)
(39 40)
(40 41)
(41 36)
(42 43)
(43 44)
(44 39)
(45 46)
(46 47)
(47 42)
(48 49)
(49 50)
(50 45)
(51 52)
(52 53)
(53 48)
(54 55)
(55 56)
(56 51)
(57 58)
(58 59)
(59 54)
(1 60)
(60 61)
(61 57)
(62 63)
(64 62)
(65 64)
(66 65)
(67 66)
(68 67)
(69 68)
(70 69)
(71 70)
(72 71)
(73 72)
(74 73)
(75 74)
(76 75)
(77 76)
(78 77)
(79 78)
(80 79)
(81 80)
(82 81)
(83 82)
(84 83)
(85 84)
(86 85)
(87 86)
(88 87)
(89 88)
(90 89)
(91 90)
(92 91)
(93 92)
(94 93)
(95 94)
(96 95)
(97 96)
(98 97)
(99 98)
(100 99)
(101 100)
(102 101)
(103 102)
(104 103)
(105 104)
(106 105)
(107 106)
(108 107)
(109 108)
(110 109)
(111 110)
(112 111)
(113 112)
(114 113)
(115 114)
(116 115)
(117 116)
(118 117)
(119 118)
(120 119)
(121 120)
(122 121)
(123 122)
(63 123)
)

// concaveStart mixedStart nonFeatureStart
0 0 0
// internalStart flatStart openStart multipleStart
124 124 124 124
// normals

248
(
(0 1 -0)
(-0.050655981 0 -0.99871616)
(0 1 0)
(0.050655618 0 -0.99871618)
(0 1 0)
(0.34731436 0 -0.93774876)
(0 1 0)
(0.25064525 0 -0.968079)
(0 1 0)
(0.15142706 0 -0.98846843)
(0 1 0)
(0.61210158 0 -0.79077915)
(0 1 0)
(0.52896821 0 -0.84864164)
(0 1 0)
(0.44038921 0 -0.89780696)
(0 1 0)
(0.82076497 0 -0.57126602)
(0 1 0)
(0.75875511 0 -0.65137599)
(0 1 0)
(0.68896905 0 -0.72479076)
(0 1 0)
(0.95413922 0 -0.29936325)
(0 1 0)
(0.91895905 0 -0.39435297)
(0 1 0)
(0.87434432 0 -0.48530611)
(0 1 0)
(1 0 0)
(0 1 0)
(0.99487012 0 -0.10116047)
(0 1 0)
(0.97952936 0 -0.20130136)
(0 1 0)
(0.95413986 -0 0.2993612)
(0 1 0)
(0.97952936 -0 0.20130136)
(0 1 0)
(0.99487012 -0 0.10116047)
(0 1 0)
(0.82076497 -0 0.57126602)
(0 1 0)
(0.87434601 -0 0.48530306)
(0 1 0)
(0.91895682 -0 0.39435817)
(0 1 0)
(0.61210158 -0 0.79077915)
(0 1 0)
(0.68896905 -0 0.72479076)
(0 1 0)
(0.75875511 -0 0.65137599)
(0 1 0)
(0.34730174 -0 0.93775343)
(0 1 0)
(0.44039499 -0 0.89780413)
(0 1 0)
(0.52896821 -0 0.84864164)
(0 1 0)
(0.050648463 -0 0.99871654)
(0 1 0)
(0.15142706 -0 0.98846843)
(0 1 0)
(0.25065198 -0 0.96807726)
(-0 1 0)
(-0.25065198 0 0.96807726)
(0 1 0)
(-0.15142706 0 0.98846843)
(0 1 -0)
(-0.050648826 0 0.99871652)
(-0 1 0)
(-0.52896821 0 0.84864164)
(0 1 0)
(-0.44039499 0 0.89780413)
(0 1 0)
(-0.34730174 0 0.93775343)
(-0 1 0)
(-0.7587622 0 0.65136773)
(0 1 0)
(-0.68896905 0 0.72479076)
(0 1 0)
(-0.61210158 0 0.79077915)
(-0 1 0)
(-0.91895682 0 0.39435817)
(0 1 0)
(-0.87434601 0 0.48530306)
(0 1 0)
(-0.82075824 0 0.57127568)
(-0 1 0)
(-0.99486868 0 0.10117467)
(0 1 0)
(-0.97953219 0 0.20128759)
(0 1 0)
(-0.95413986 0 0.2993612)
(0 1 -0)
(-0.97953219 0 -0.20128759)
(0 1 0)
(-0.99486868 0 -0.10117467)
(0 1 0)
(-1 0 0)
(0 1 -0)
(-0.87434432 0 -0.48530611)
(0 1 0)
(-0.91895905 0 -0.39435297)
(0 1 0)
(-0.95413922 0 -0.29936325)
(0 1 -0)
(-0.68896905 0 -0.72479076)
(0 1 0)
(-0.7587622 0 -0.65136773)
(0 1 0)
(-0.82075824 0 -0.57127568)
(0 1 -0)
(-0.44038921 0 -0.89780696)
(0 1 0)
(-0.52896821 0 -0.84864164)
(0 1 0)
(-0.61210158 0 -0.79077915)
(0 1 -0)
(-0.15142706 0 -0.98846843)
(0 1 0)
(-0.25064525 0 -0.968079)
(0 1 0)
(-0.34731436 0 -0.93774876)
(0.050655618 0 -0.99871618)
(0 -1 0)
(0.15142706 0 -0.98846843)
(0 -1 0)
(0.25064525 0 -0.968079)
(0 -1 0)
(0.34731436 0 -0.93774876)
(0 -1 0)
(0.44038921 0 -0.89780696)
(0 -1 0)
(0.52896821 0 -0.84864164)
(0 -1 0)
(0.61210158 0 -0.79077915)
(0 -1 0)
(0.68896905 0 -0.72479076)
(0 -1 0)
(0.75875511 0 -0.65137599)
(0 -1 0)
(0.82076497 0 -0.57126602)
(0 -1 0)
(0.87434432 0 -0.48530611)
(0 -1 0)
(0.91895905 0 -0.39435297)
(0 -1 0)
(0.95413922 0 -0.29936325)
(0 -1 0)
(0.97952936 0 -0.20130136)
(0 -1 0)
(0.99487012 0 -0.10116047)
(0 -1 0)
(1 0 0)
(0 -1 0)
(0.99487012 0 0.10116047)
(-0 -1 0)
(0.97952936 0 0.20130136)
(0 -1 0)
(0.95413986 0 0.2993612)
(0 -1 0)
(0.91895682 0 0.39435817)
(-0 -1 0)
(0.87434601 0 0.48530306)
(0 -1 0)
(0.82076497 0 0.57126602)
(0 -1 0)
(0.75875511 0 0.65137599)
(-0 -1 0)
(0.68896905 0 0.72479076)
(0 -1 0)
(0.61210158 0 0.79077915)
(0 -1 0)
(0.52896821 0 0.84864164)
(-0 -1 0)
(0.44039499 0 0.89780413)
(0 -1 0)
(0.34730174 0 0.93775343)
(0 -1 0)
(0.25065198 0 0.96807726)
(-0 -1 0)
(0.15142706 0 0.98846843)
(0 -1 0)
(0.050648463 0 0.99871654)
(0 -1 0)
(-0.050648826 0 0.99871652)
(0 -1 -0)
(-0.15142706 0 0.98846843)
(0 -1 0)
(-0.25065198 0 0.96807726)
(0 -1 0)
(-0.34730174 0 0.93775343)
(0 -1 -0)
(-0.44039499 0 0.89780413)
(0 -1 0)
(-0.52896821 0 0.84864164)
(0 -1 0)
(-0.61210158 0 0.79077915)
(0 -1 -0)
(-0.68896905 0 0.72479076)
(0 -1 0)
(-0.7587622 0 0.65136773)
(0 -1 0)
(-0.82075824 0 0.57127568)
(0 -1 -0)
(-0.87434601 0 0.48530306)
(0 -1 0)
(-0.91895682 0 0.39435817)
(0 -1 0)
(-0.95413986 0 0.2993612)
(0 -1 -0)
(-0.97953219 0 0.20128759)
(0 -1 0)
(-0.99486868 0 0.10117467)
(0 -1 0)
(-1 0 0)
(0 -1 0)
(-0.99486868 0 -0.10117467)
(0 -1 0)
(-0.97953219 0 -0.20128759)
(0 -1 0)
(-0.95413922 0 -0.29936325)
(0 -1 0)
(-0.91895905 0 -0.39435297)
(0 -1 0)
(-0.87434432 0 -0.48530611)
(0 -1 0)
(-0.82075824 0 -0.57127568)
(0 -1 0)
(-0.7587622 0 -0.65136773)
(0 -1 0)
(-0.68896905 0 -0.72479076)
(0 -1 0)
(-0.61210158 0 -0.79077915)
(0 -1 0)
(-0.52896821 0 -0.84864164)
(0 -1 0)
(-0.44038921 0 -0.89780696)
(0 -1 0)
(-0.34731436 0 -0.93774876)
(0 -1 0)
(-0.25064525 0 -0.968079)
(0 -1 0)
(-0.15142706 0 -0.98846843)
(0 -1 0)
(-0.050655981 0 -0.99871616)
(0 -1 0)
)

// normal volume types

248
(
0
0
0
0
0
0
0
0
0
0
0
0
0
0
0
0
0
0
0
0
0
0
0
0
0
0
0
0
0
0
0
0
0
0
0
0
0
0
0
0
0
0
0
0
0
0
0
0
0
0
0
0
0
0
0
0
0
0
0
0
0
0
0
0
0
0
0
0
0
0
0
0
0
0
0
0
0
0
0
0
0
0
0
0
0
0
0
0
0
0
0
0
0
0
0
0
0
0
0
0
0
0
0
0
0
0
0
0
0
0
0
0
0
0
0
0
0
0
0
0
0
0
0
0
0
0
0
0
0
0
0
0
0
0
0
0
0
0
0
0
0
0
0
0
0
0
0
0
0
0
0
0
0
0
0
0
0
0
0
0
0
0
0
0
0
0
0
0
0
0
0
0
0
0
0
0
0
0
0
0
0
0
0
0
0
0
0
0
0
0
0
0
0
0
0
0
0
0
0
0
0
0
0
0
0
0
0
0
0
0
0
0
0
0
0
0
0
0
0
0
0
0
0
0
0
0
0
0
0
0
0
0
0
0
0
0
0
0
0
0
0
0
0
0
0
0
0
0
)

// normalDirections

124
(
2(1 -1)
2(1 -1)
2(1 -1)
2(1 -1)
2(1 -1)
2(1 -1)
2(1 -1)
2(1 -1)
2(1 -1)
2(1 -1)
2(1 -1)
2(1 -1)
2(1 -1)
2(1 -1)
2(1 -1)
2(1 -1)
2(1 -1)
2(1 -1)
2(1 -1)
2(1 -1)
2(1 -1)
2(1 -1)
2(1 -1)
2(1 -1)
2(1 -1)
2(1 -1)
2(1 -1)
2(1 -1)
2(1 -1)
2(1 -1)
2(1 -1)
2(1 -1)
2(1 -1)
2(1 -1)
2(1 -1)
2(1 -1)
2(1 -1)
2(1 -1)
2(1 -1)
2(1 -1)
2(1 -1)
2(1 -1)
2(1 -1)
2(1 -1)
2(1 -1)
2(1 -1)
2(1 -1)
2(1 -1)
2(1 -1)
2(1 -1)
2(1 -1)
2(1 -1)
2(1 -1)
2(1 -1)
2(1 -1)
2(1 -1)
2(1 -1)
2(1 -1)
2(1 -1)
2(1 -1)
2(1 -1)
2(1 -1)
2(1 -1)
2(1 -1)
2(1 -1)
2(1 -1)
2(1 -1)
2(1 -1)
2(1 -1)
2(1 -1)
2(1 -1)
2(1 -1)
2(1 -1)
2(1 -1)
2(1 -1)
2(1 -1)
2(1 -1)
2(1 -1)
2(1 -1)
2(1 -1)
2(1 -1)
2(1 -1)
2(1 -1)
2(1 -1)
2(1 -1)
2(1 -1)
2(1 -1)
2(1 -1)
2(1 -1)
2(1 -1)
2(1 -1)
2(1 -1)
2(1 -1)
2(1 -1)
2(1 -1)
2(1 -1)
2(1 -1)
2(1 -1)
2(1 -1)
2(1 -1)
2(1 -1)
2(1 -1)
2(1 -1)
2(1 -1)
2(1 -1)
2(1 -1)
2(1 -1)
2(1 -1)
2(1 -1)
2(1 -1)
2(1 -1)
2(1 -1)
2(1 -1)
2(1 -1)
2(1 -1)
2(1 -1)
2(1 -1)
2(1 -1)
2(1 -1)
2(1 -1)
2(1 -1)
2(1 -1)
2(1 -1)
2(1 -1)
)

// edgeNormals

124
(
2(0 1)
2(2 3)
2(4 5)
2(6 7)
2(8 9)
2(10 11)
2(12 13)
2(14 15)
2(16 17)
2(18 19)
2(20 21)
2(22 23)
2(24 25)
2(26 27)
2(28 29)
2(30 31)
2(32 33)
2(34 35)
2(36 37)
2(38 39)
2(40 41)
2(42 43)
2(44 45)
2(46 47)
2(48 49)
2(50 51)
2(52 53)
2(54 55)
2(56 57)
2(58 59)
2(60 61)
2(62 63)
2(64 65)
2(66 67)
2(68 69)
2(70 71)
2(72 73)
2(74 75)
2(76 77)
2(78 79)
2(80 81)
2(82 83)
2(84 85)
2(86 87)
2(88 89)
2(90 91)
2(92 93)
2(94 95)
2(96 97)
2(98 99)
2(100 101)
2(102 103)
2(104 105)
2(106 107)
2(108 109)
2(110 111)
2(112 113)
2(114 115)
2(116 117)
2(118 119)
2(120 121)
2(122 123)
2(124 125)
2(126 127)
2(128 129)
2(130 131)
2(132 133)
2(134 135)
2(136 137)
2(138 139)
2(140 141)
2(142 143)
2(144 145)
2(146 147)
2(148 149)
2(150 151)
2(152 153)
2(154 155)
2(156 157)
2(158 159)
2(160 161)
2(162 163)
2(164 165)
2(166 167)
2(168 169)
2(170 171)
2(172 173)
2(174 175)
2(176 177)
2(178 179)
2(180 181)
2(182 183)
2(184 185)
2(186 187)
2(188 189)
2(190 191)
2(192 193)
2(194 195)
2(196 197)
2(198 199)
2(200 201)
2(202 203)
2(204 205)
2(206 207)
2(208 209)
2(210 211)
2(212 213)
2(214 215)
2(216 217)
2(218 219)
2(220 221)
2(222 223)
2(224 225)
2(226 227)
2(228 229)
2(230 231)
2(232 233)
2(234 235)
2(236 237)
2(238 239)
2(240 241)
2(242 243)
2(244 245)
2(246 247)
)

// featurePointNormals
0()
// featurePointEdges
0()
// regionEdges
0()


// ************************************************************************* //
