/*--------------------------------*- C++ -*----------------------------------*\
  =========                 |
  \\      /  F ield         | OpenFOAM: The Open Source CFD Toolbox
   \\    /   O peration     | Website:  https://openfoam.org
    \\  /    A nd           | Version:  9
     \\/     M anipulation  |
\*---------------------------------------------------------------------------*/
FoamFile
{
    format      ascii;
    class       extendedFeatureEdgeMesh;
    location    "constant/extendedFeatureEdgeMesh";
    object      outlet.extendedFeatureEdgeMesh;
}
// * * * * * * * * * * * * * * * * * * * * * * * * * * * * * * * * * * * * * //

// points

124
(
(785.03101 2162.7981 2156.6001)
(784.59998 2154.3 2156.6001)
(785.03101 2162.7981 2158.6001)
(786.31952 2171.209 2158.6001)
(786.31952 2171.209 2156.6001)
(788.45227 2179.447 2158.6001)
(788.45227 2179.447 2156.6001)
(791.40759 2187.426 2158.6001)
(791.40759 2187.426 2156.6001)
(795.15491 2195.0649 2158.6001)
(795.15491 2195.0649 2156.6001)
(799.65588 2202.2871 2158.6001)
(799.65588 2202.2871 2156.6001)
(804.86432 2209.0149 2158.6001)
(804.86432 2209.0149 2156.6001)
(810.72681 2215.1831 2158.6001)
(810.72681 2215.1831 2156.6001)
(817.18311 2220.7251 2158.6001)
(817.18311 2220.7251 2156.6001)
(824.16699 2225.5859 2158.6001)
(824.16699 2225.5859 2156.6001)
(831.60687 2229.7161 2158.6001)
(831.60687 2229.7161 2156.6001)
(839.42639 2233.071 2158.6001)
(839.42639 2233.071 2156.6001)
(847.54523 2235.6189 2158.6001)
(847.54523 2235.6189 2156.6001)
(855.88013 2237.3311 2158.6001)
(855.88013 2237.3311 2156.6001)
(864.34552 2238.1919 2158.6001)
(864.34552 2238.1919 2156.6001)
(872.85449 2238.1919 2158.6001)
(872.85449 2238.1919 2156.6001)
(881.31989 2237.3311 2158.6001)
(881.31989 2237.3311 2156.6001)
(889.65479 2235.6189 2158.6001)
(889.65479 2235.6189 2156.6001)
(897.77368 2233.071 2158.6001)
(897.77368 2233.071 2156.6001)
(905.59308 2229.7161 2158.6001)
(905.59308 2229.7161 2156.6001)
(913.03302 2225.5859 2158.6001)
(913.03302 2225.5859 2156.6001)
(920.01691 2220.7251 2158.6001)
(920.01691 2220.7251 2156.6001)
(926.47321 2215.1831 2158.6001)
(926.47321 2215.1831 2156.6001)
(932.33569 2209.0149 2158.6001)
(932.33569 2209.0149 2156.6001)
(937.54413 2202.2871 2158.6001)
(937.54413 2202.2871 2156.6001)
(942.0451 2195.0649 2158.6001)
(942.0451 2195.0649 2156.6001)
(945.79248 2187.426 2158.6001)
(945.79248 2187.426 2156.6001)
(948.74768 2179.447 2158.6001)
(948.74768 2179.447 2156.6001)
(950.88049 2171.209 2158.6001)
(950.88049 2171.209 2156.6001)
(952.16901 2162.7981 2158.6001)
(952.16901 2162.7981 2156.6001)
(952.59998 2154.3 2158.6001)
(952.59998 2154.3 2156.6001)
(952.16901 2145.802 2158.6001)
(952.16901 2145.802 2156.6001)
(950.88049 2137.3911 2158.6001)
(950.88049 2137.3911 2156.6001)
(948.74768 2129.1541 2158.6001)
(948.74768 2129.1541 2156.6001)
(945.79248 2121.1741 2158.6001)
(945.79248 2121.1741 2156.6001)
(942.0451 2113.5349 2158.6001)
(942.0451 2113.5349 2156.6001)
(937.54413 2106.314 2158.6001)
(937.54413 2106.314 2156.6001)
(932.33569 2099.585 2158.6001)
(932.33569 2099.585 2156.6001)
(926.47321 2093.417 2158.6001)
(926.47321 2093.417 2156.6001)
(920.01691 2087.875 2158.6001)
(920.01691 2087.875 2156.6001)
(913.03302 2083.0139 2158.6001)
(913.03302 2083.0139 2156.6001)
(905.59308 2078.884 2158.6001)
(905.59308 2078.884 2156.6001)
(897.77368 2075.5291 2158.6001)
(897.77368 2075.5291 2156.6001)
(889.65479 2072.9819 2158.6001)
(889.65479 2072.9819 2156.6001)
(881.31989 2071.269 2158.6001)
(881.31989 2071.269 2156.6001)
(872.85449 2070.408 2158.6001)
(872.85449 2070.408 2156.6001)
(864.34552 2070.408 2158.6001)
(864.34552 2070.408 2156.6001)
(855.88013 2071.269 2158.6001)
(855.88013 2071.269 2156.6001)
(847.54523 2072.9819 2158.6001)
(847.54523 2072.9819 2156.6001)
(839.42639 2075.5291 2158.6001)
(839.42639 2075.5291 2156.6001)
(831.60687 2078.884 2158.6001)
(831.60687 2078.884 2156.6001)
(824.16699 2083.0139 2158.6001)
(824.16699 2083.0139 2156.6001)
(817.18311 2087.875 2158.6001)
(817.18311 2087.875 2156.6001)
(810.72681 2093.417 2158.6001)
(810.72681 2093.417 2156.6001)
(804.86432 2099.585 2158.6001)
(804.86432 2099.585 2156.6001)
(799.65588 2106.314 2158.6001)
(799.65588 2106.314 2156.6001)
(795.15491 2113.5349 2158.6001)
(795.15491 2113.5349 2156.6001)
(791.40759 2121.1741 2158.6001)
(791.40759 2121.1741 2156.6001)
(788.45227 2129.1541 2158.6001)
(788.45227 2129.1541 2156.6001)
(786.31952 2137.3911 2158.6001)
(786.31952 2137.3911 2156.6001)
(785.03101 2145.802 2158.6001)
(785.03101 2145.802 2156.6001)
(784.59998 2154.3 2158.6001)
)

// edges

124
(
(0 1)
(2 3)
(4 0)
(3 5)
(6 4)
(5 7)
(8 6)
(7 9)
(10 8)
(9 11)
(12 10)
(11 13)
(14 12)
(13 15)
(16 14)
(15 17)
(18 16)
(17 19)
(20 18)
(19 21)
(22 20)
(21 23)
(24 22)
(23 25)
(26 24)
(25 27)
(28 26)
(27 29)
(30 28)
(29 31)
(32 30)
(31 33)
(34 32)
(33 35)
(36 34)
(35 37)
(38 36)
(37 39)
(40 38)
(39 41)
(42 40)
(41 43)
(44 42)
(43 45)
(46 44)
(45 47)
(48 46)
(47 49)
(50 48)
(49 51)
(52 50)
(51 53)
(54 52)
(53 55)
(56 54)
(55 57)
(58 56)
(57 59)
(60 58)
(59 61)
(62 60)
(61 63)
(64 62)
(63 65)
(66 64)
(65 67)
(68 66)
(67 69)
(70 68)
(69 71)
(72 70)
(71 73)
(74 72)
(73 75)
(76 74)
(75 77)
(78 76)
(77 79)
(80 78)
(79 81)
(82 80)
(81 83)
(84 82)
(83 85)
(86 84)
(85 87)
(88 86)
(87 89)
(90 88)
(89 91)
(92 90)
(91 93)
(94 92)
(93 95)
(96 94)
(95 97)
(98 96)
(97 99)
(100 98)
(99 101)
(102 100)
(101 103)
(104 102)
(103 105)
(106 104)
(105 107)
(108 106)
(107 109)
(110 108)
(109 111)
(112 110)
(111 113)
(114 112)
(113 115)
(116 114)
(115 117)
(118 116)
(117 119)
(120 118)
(119 121)
(122 120)
(121 123)
(1 122)
(123 2)
)

// concaveStart mixedStart nonFeatureStart
0 0 0
// internalStart flatStart openStart multipleStart
124 124 124 124
// normals

248
(
(-0.99871616 0.050655981 0)
(0 0 -1)
(-0.98846811 0.15142921 0)
(0 0 1)
(-0.98846811 0.15142921 0)
(0 0 -1)
(-0.96808351 0.25062785 0)
(0 0 1)
(-0.96808351 0.25062785 0)
(0 0 -1)
(-0.93774357 0.34732837 0)
(0 0 1)
(-0.93774357 0.34732837 0)
(0 0 -1)
(-0.89779305 0.44041758 0)
(0 0 1)
(-0.89779305 0.44041758 0)
(0 0 -1)
(-0.84867776 0.52891026 0)
(0 0 1)
(-0.84867776 0.52891026 0)
(0 0 -1)
(-0.79073345 0.61216061 0)
(0 0 1)
(-0.79073345 0.61216061 0)
(0 0 -1)
(-0.72484183 0.68891532 0)
(0 0 1)
(-0.72484183 0.68891532 0)
(0 0 -1)
(-0.65133469 0.75879057 0)
(0 0 1)
(-0.65133469 0.75879057 0)
(0 0 -1)
(-0.57126119 0.82076833 0)
(0 0 1)
(-0.57126119 0.82076833 0)
(0 0 -1)
(-0.48536094 0.87431388 0)
(0 0 1)
(-0.48536094 0.87431388 0)
(0 0 -1)
(-0.39429239 0.91898504 0)
(0 0 1)
(-0.39429239 0.91898504 0)
(0 0 -1)
(-0.29942202 0.95412078 0)
(0 0 1)
(-0.29942202 0.95412078 0)
(0 0 -1)
(-0.20121877 0.97954633 0)
(0 0 1)
(-0.20121877 0.97954633 0)
(0 0 -1)
(-0.10116757 0.9948694 0)
(0 0 1)
(-0.10116757 0.9948694 0)
(0 0 -1)
(0 1 0)
(0 -0 1)
(0 1 0)
(0 0 -1)
(0.10116757 0.9948694 -0)
(0 0 1)
(0.10116757 0.9948694 0)
(0 0 -1)
(0.20121877 0.97954633 -0)
(0 0 1)
(0.20121877 0.97954633 0)
(0 0 -1)
(0.29941997 0.95412142 -0)
(0 0 1)
(0.29941997 0.95412142 0)
(0 -0 -1)
(0.39429759 0.91898281 -0)
(0 0 1)
(0.39429759 0.91898281 0)
(0 0 -1)
(0.48535789 0.87431557 -0)
(0 0 1)
(0.48535789 0.87431557 0)
(0 0 -1)
(0.57126119 0.82076833 -0)
(0 0 1)
(0.57126119 0.82076833 0)
(0 -0 -1)
(0.65133469 0.75879057 -0)
(0 0 1)
(0.65133469 0.75879057 0)
(0 0 -1)
(0.72484183 0.68891532 -0)
(0 0 1)
(0.72484183 0.68891532 0)
(0 0 -1)
(0.79073345 0.61216061 -0)
(0 0 1)
(0.79073345 0.61216061 0)
(0 -0 -1)
(0.84867776 0.52891026 -0)
(0 0 1)
(0.84867776 0.52891026 0)
(0 0 -1)
(0.89779021 0.44042336 -0)
(0 0 1)
(0.89779021 0.44042336 0)
(0 0 -1)
(0.93774824 0.34731576 -0)
(0 0 1)
(0.93774824 0.34731576 0)
(0 -0 -1)
(0.96808177 0.25063457 -0)
(0 0 1)
(0.96808177 0.25063457 0)
(0 0 -1)
(0.98846811 0.15142921 -0)
(0 0 1)
(0.98846811 0.15142921 0)
(0 0 -1)
(0.99871652 0.050648826 -0)
(0 0 1)
(0.99871652 0.050648826 0)
(0 0 -1)
(0.99871652 -0.050648826 0)
(0 0 1)
(0.99871652 -0.050648826 0)
(-0 0 -1)
(0.98846811 -0.15142921 0)
(0 0 1)
(0.98846811 -0.15142921 0)
(-0 0 -1)
(0.96807456 -0.25066242 0)
(0 0 1)
(0.96807456 -0.25066242 0)
(0 0 -1)
(0.93776208 -0.34727838 0)
(0 -0 1)
(0.93776208 -0.34727838 0)
(0 0 -1)
(0.89779578 -0.44041201 0)
(0 0 1)
(0.89779578 -0.44041201 0)
(-0 0 -1)
(0.84863762 -0.52897465 0)
(0 0 1)
(0.84863762 -0.52897465 0)
(0 0 -1)
(0.79078721 -0.61209116 0)
(0 -0 1)
(0.79078721 -0.61209116 0)
(0 0 -1)
(0.72482821 -0.68892965 0)
(0 0 1)
(0.72482821 -0.68892965 0)
(-0 0 -1)
(0.65133469 -0.75879057 0)
(0 0 1)
(0.65133469 -0.75879057 0)
(0 0 -1)
(0.57128052 -0.82075488 0)
(0 -0 1)
(0.57128052 -0.82075488 0)
(0 0 -1)
(0.48533596 -0.87432774 0)
(0 0 1)
(0.48533596 -0.87432774 0)
(-0 0 -1)
(0.39429759 -0.91898281 0)
(0 0 1)
(0.39429759 -0.91898281 0)
(0 0 -1)
(0.29934161 -0.95414601 0)
(0 -0 1)
(0.29934161 -0.95414601 0)
(0 0 -1)
(0.20130136 -0.97952936 0)
(0 0 1)
(0.20130136 -0.97952936 0)
(-0 0 -1)
(0.10119596 -0.99486651 0)
(0 0 1)
(0.10119596 -0.99486651 0)
(0 0 -1)
(0 -1 0)
(0 0 1)
(0 -1 0)
(0 -0 -1)
(-0.10119596 -0.99486651 0)
(0 0 1)
(-0.10119596 -0.99486651 0)
(0 0 -1)
(-0.20130136 -0.97952936 0)
(0 0 1)
(-0.20130136 -0.97952936 0)
(0 0 -1)
(-0.29934366 -0.95414536 0)
(-0 0 1)
(-0.29934366 -0.95414536 0)
(0 0 -1)
(-0.39429239 -0.91898504 0)
(0 0 1)
(-0.39429239 -0.91898504 0)
(0 0 -1)
(-0.48533901 -0.87432605 0)
(0 0 1)
(-0.48533901 -0.87432605 0)
(0 0 -1)
(-0.57128052 -0.82075488 0)
(-0 0 1)
(-0.57128052 -0.82075488 0)
(0 0 -1)
(-0.65133469 -0.75879057 0)
(0 0 1)
(-0.65133469 -0.75879057 0)
(0 0 -1)
(-0.72482821 -0.68892965 0)
(0 0 1)
(-0.72482821 -0.68892965 0)
(0 0 -1)
(-0.79078721 -0.61209116 0)
(-0 0 1)
(-0.79078721 -0.61209116 0)
(0 0 -1)
(-0.84863762 -0.52897465 0)
(0 0 1)
(-0.84863762 -0.52897465 0)
(0 0 -1)
(-0.89779861 -0.44040623 0)
(0 0 1)
(-0.89779861 -0.44040623 0)
(0 0 -1)
(-0.93775741 -0.347291 0)
(-0 0 1)
(-0.93775741 -0.347291 0)
(0 0 -1)
(-0.9680763 -0.2506557 0)
(0 0 1)
(-0.9680763 -0.2506557 0)
(0 0 -1)
(-0.98846811 -0.15142921 0)
(0 0 1)
(-0.98846811 -0.15142921 0)
(0 0 -1)
(-0.99871616 -0.050655981 0)
(-0 0 1)
(-0.99871616 -0.050655981 0)
(-0 0 -1)
(-0.99871616 0.050655981 0)
(0 0 1)
)

// normal volume types

248
(
0
0
0
0
0
0
0
0
0
0
0
0
0
0
0
0
0
0
0
0
0
0
0
0
0
0
0
0
0
0
0
0
0
0
0
0
0
0
0
0
0
0
0
0
0
0
0
0
0
0
0
0
0
0
0
0
0
0
0
0
0
0
0
0
0
0
0
0
0
0
0
0
0
0
0
0
0
0
0
0
0
0
0
0
0
0
0
0
0
0
0
0
0
0
0
0
0
0
0
0
0
0
0
0
0
0
0
0
0
0
0
0
0
0
0
0
0
0
0
0
0
0
0
0
0
0
0
0
0
0
0
0
0
0
0
0
0
0
0
0
0
0
0
0
0
0
0
0
0
0
0
0
0
0
0
0
0
0
0
0
0
0
0
0
0
0
0
0
0
0
0
0
0
0
0
0
0
0
0
0
0
0
0
0
0
0
0
0
0
0
0
0
0
0
0
0
0
0
0
0
0
0
0
0
0
0
0
0
0
0
0
0
0
0
0
0
0
0
0
0
0
0
0
0
0
0
0
0
0
0
0
0
0
0
0
0
0
0
0
0
0
0
0
0
0
0
0
0
)

// normalDirections

124
(
2(1 -1)
2(1 -1)
2(1 -1)
2(1 -1)
2(1 -1)
2(1 -1)
2(1 -1)
2(1 -1)
2(1 -1)
2(1 -1)
2(1 -1)
2(1 -1)
2(1 -1)
2(1 -1)
2(1 -1)
2(1 -1)
2(1 -1)
2(1 -1)
2(1 -1)
2(1 -1)
2(1 -1)
2(1 -1)
2(1 -1)
2(1 -1)
2(1 -1)
2(1 -1)
2(1 -1)
2(1 -1)
2(1 -1)
2(1 -1)
2(1 -1)
2(1 -1)
2(1 -1)
2(1 -1)
2(1 -1)
2(1 -1)
2(1 -1)
2(1 -1)
2(1 -1)
2(1 -1)
2(1 -1)
2(1 -1)
2(1 -1)
2(1 -1)
2(1 -1)
2(1 -1)
2(1 -1)
2(1 -1)
2(1 -1)
2(1 -1)
2(1 -1)
2(1 -1)
2(1 -1)
2(1 -1)
2(1 -1)
2(1 -1)
2(1 -1)
2(1 -1)
2(1 -1)
2(1 -1)
2(1 -1)
2(1 -1)
2(1 -1)
2(1 -1)
2(1 -1)
2(1 -1)
2(1 -1)
2(1 -1)
2(1 -1)
2(1 -1)
2(1 -1)
2(1 -1)
2(1 -1)
2(1 -1)
2(1 -1)
2(1 -1)
2(1 -1)
2(1 -1)
2(1 -1)
2(1 -1)
2(1 -1)
2(1 -1)
2(1 -1)
2(1 -1)
2(1 -1)
2(1 -1)
2(1 -1)
2(1 -1)
2(1 -1)
2(1 -1)
2(1 -1)
2(1 -1)
2(1 -1)
2(1 -1)
2(1 -1)
2(1 -1)
2(1 -1)
2(1 -1)
2(1 -1)
2(1 -1)
2(1 -1)
2(1 -1)
2(1 -1)
2(1 -1)
2(1 -1)
2(1 -1)
2(1 -1)
2(1 -1)
2(1 -1)
2(1 -1)
2(1 -1)
2(1 -1)
2(1 -1)
2(1 -1)
2(1 -1)
2(1 -1)
2(1 -1)
2(1 -1)
2(1 -1)
2(1 -1)
2(1 -1)
2(1 -1)
2(1 -1)
2(1 -1)
)

// edgeNormals

124
(
2(0 1)
2(2 3)
2(4 5)
2(6 7)
2(8 9)
2(10 11)
2(12 13)
2(14 15)
2(16 17)
2(18 19)
2(20 21)
2(22 23)
2(24 25)
2(26 27)
2(28 29)
2(30 31)
2(32 33)
2(34 35)
2(36 37)
2(38 39)
2(40 41)
2(42 43)
2(44 45)
2(46 47)
2(48 49)
2(50 51)
2(52 53)
2(54 55)
2(56 57)
2(58 59)
2(60 61)
2(62 63)
2(64 65)
2(66 67)
2(68 69)
2(70 71)
2(72 73)
2(74 75)
2(76 77)
2(78 79)
2(80 81)
2(82 83)
2(84 85)
2(86 87)
2(88 89)
2(90 91)
2(92 93)
2(94 95)
2(96 97)
2(98 99)
2(100 101)
2(102 103)
2(104 105)
2(106 107)
2(108 109)
2(110 111)
2(112 113)
2(114 115)
2(116 117)
2(118 119)
2(120 121)
2(122 123)
2(124 125)
2(126 127)
2(128 129)
2(130 131)
2(132 133)
2(134 135)
2(136 137)
2(138 139)
2(140 141)
2(142 143)
2(144 145)
2(146 147)
2(148 149)
2(150 151)
2(152 153)
2(154 155)
2(156 157)
2(158 159)
2(160 161)
2(162 163)
2(164 165)
2(166 167)
2(168 169)
2(170 171)
2(172 173)
2(174 175)
2(176 177)
2(178 179)
2(180 181)
2(182 183)
2(184 185)
2(186 187)
2(188 189)
2(190 191)
2(192 193)
2(194 195)
2(196 197)
2(198 199)
2(200 201)
2(202 203)
2(204 205)
2(206 207)
2(208 209)
2(210 211)
2(212 213)
2(214 215)
2(216 217)
2(218 219)
2(220 221)
2(222 223)
2(224 225)
2(226 227)
2(228 229)
2(230 231)
2(232 233)
2(234 235)
2(236 237)
2(238 239)
2(240 241)
2(242 243)
2(244 245)
2(246 247)
)

// featurePointNormals
0()
// featurePointEdges
0()
// regionEdges
0()


// ************************************************************************* //
