/*--------------------------------*- C++ -*----------------------------------*\
  =========                 |
  \\      /  F ield         | OpenFOAM: The Open Source CFD Toolbox
   \\    /   O peration     | Website:  https://openfoam.org
    \\  /    A nd           | Version:  9
     \\/     M anipulation  |
\*---------------------------------------------------------------------------*/
FoamFile
{
    format      ascii;
    class       extendedFeatureEdgeMesh;
    location    "constant/extendedFeatureEdgeMesh";
    object      vessel.extendedFeatureEdgeMesh;
}
// * * * * * * * * * * * * * * * * * * * * * * * * * * * * * * * * * * * * * //

// points

756
(
(868.59998 434.29999 954.59998)
(954.59998 434.29999 868.59998)
(868.59998 434.29999 782.59998)
(782.59998 434.29999 868.59998)
(785.49518 2166.531 2158.6001)
(784.59998 2154.3 2158.6001)
(784.59998 2154.3 1728.6)
(785.49518 2166.531 1728.6)
(788.16162 2178.5 2158.6001)
(788.16162 2178.5 1728.6)
(792.54242 2189.9541 2158.6001)
(792.54242 2189.9541 1728.6)
(798.54419 2200.6479 2158.6001)
(798.54419 2200.6479 1728.6)
(806.03912 2210.355 2158.6001)
(806.03912 2210.355 1728.6)
(814.86749 2218.866 2158.6001)
(814.86749 2218.866 1728.6)
(824.841 2226.002 2158.6001)
(824.841 2226.002 1728.6)
(835.74719 2231.6089 2158.6001)
(835.74719 2231.6089 1728.6)
(847.35358 2235.5691 2158.6001)
(847.35358 2235.5691 1728.6)
(859.41278 2237.7959 2158.6001)
(859.41278 2237.7959 1728.6)
(871.66791 2238.2439 2158.6001)
(871.66791 2238.2439 1728.6)
(883.85748 2236.9031 2158.6001)
(883.85748 2236.9031 1728.6)
(895.72198 2233.801 2158.6001)
(895.72198 2233.801 1728.6)
(907.00842 2229.0049 2158.6001)
(907.00842 2229.0049 1728.6)
(917.4762 2222.616 2158.6001)
(917.4762 2222.616 1728.6)
(926.90222 2214.772 2158.6001)
(926.90222 2214.772 1728.6)
(935.08569 2205.6389 2158.6001)
(935.08569 2205.6389 1728.6)
(941.85217 2195.4109 2158.6001)
(941.85217 2195.4109 1728.6)
(947.05737 2184.3069 2158.6001)
(947.05737 2184.3069 1728.6)
(950.59039 2172.564 2158.6001)
(950.59039 2172.564 1728.6)
(952.37592 2160.4319 2158.6001)
(952.37592 2160.4319 1728.6)
(952.59998 2154.3 2158.6001)
(952.59998 2154.3 1728.6)
(952.37592 2148.168 2158.6001)
(952.37592 2148.168 1728.6)
(950.59039 2136.0359 2158.6001)
(950.59039 2136.0359 1728.6)
(947.05737 2124.293 2158.6001)
(947.05737 2124.293 1728.6)
(941.85217 2113.189 2158.6001)
(941.85217 2113.189 1728.6)
(935.08569 2102.9609 2158.6001)
(935.08569 2102.9609 1728.6)
(926.90222 2093.8279 2158.6001)
(926.90222 2093.8279 1728.6)
(917.4762 2085.9839 2158.6001)
(917.4762 2085.9839 1728.6)
(907.00842 2079.595 2158.6001)
(907.00842 2079.595 1728.6)
(895.72198 2074.7991 2158.6001)
(895.72198 2074.7991 1728.6)
(883.85748 2071.697 2158.6001)
(883.85748 2071.697 1728.6)
(871.66791 2070.356 2158.6001)
(871.66791 2070.356 1728.6)
(859.41278 2070.804 2158.6001)
(859.41278 2070.804 1728.6)
(847.35358 2073.031 2158.6001)
(847.35358 2073.031 1728.6)
(835.74719 2076.991 2158.6001)
(835.74719 2076.991 1728.6)
(824.841 2082.5979 2158.6001)
(824.841 2082.5979 1728.6)
(814.86749 2089.7339 2158.6001)
(814.86749 2089.7339 1728.6)
(806.03912 2098.2451 2158.6001)
(806.03912 2098.2451 1728.6)
(798.54419 2107.9509 2158.6001)
(798.54419 2107.9509 1728.6)
(792.54242 2118.646 2158.6001)
(792.54242 2118.646 1728.6)
(788.16162 2130.1001 2158.6001)
(788.16162 2130.1001 1728.6)
(785.49518 2142.0701 2158.6001)
(785.49518 2142.0701 1728.6)
(783.4754 2166.5391 1728.6)
(782.59998 2154.3 1728.6)
(783.4754 2166.5391 2158.6001)
(786.08362 2178.5291 2158.6001)
(786.08362 2178.5291 1728.6)
(790.3717 2190.0259 2158.6001)
(790.3717 2190.0259 1728.6)
(796.2522 2200.7949 2158.6001)
(796.2522 2200.7949 1728.6)
(803.60553 2210.6179 2158.6001)
(803.60553 2210.6179 1728.6)
(812.28198 2219.2939 2158.6001)
(812.28198 2219.2939 1728.6)
(822.10492 2226.6479 2158.6001)
(822.10492 2226.6479 1728.6)
(832.87433 2232.5281 2158.6001)
(832.87433 2232.5281 1728.6)
(844.37097 2236.8159 2158.6001)
(844.37097 2236.8159 1728.6)
(856.3609 2239.425 2158.6001)
(856.3609 2239.425 1728.6)
(868.59998 2240.3 2158.6001)
(868.59998 2240.3 1728.6)
(880.83911 2239.425 2158.6001)
(880.83911 2239.425 1728.6)
(892.82898 2236.8159 2158.6001)
(892.82898 2236.8159 1728.6)
(904.32568 2232.5281 2158.6001)
(904.32568 2232.5281 1728.6)
(915.09509 2226.6479 2158.6001)
(915.09509 2226.6479 1728.6)
(924.91803 2219.2939 2158.6001)
(924.91803 2219.2939 1728.6)
(933.59448 2210.6179 2158.6001)
(933.59448 2210.6179 1728.6)
(940.94781 2200.7949 2158.6001)
(940.94781 2200.7949 1728.6)
(946.82843 2190.0259 2158.6001)
(946.82843 2190.0259 1728.6)
(951.11639 2178.5291 2158.6001)
(951.11639 2178.5291 1728.6)
(953.72467 2166.5391 2158.6001)
(953.72467 2166.5391 1728.6)
(954.59998 2154.3 2158.6001)
(954.59998 2154.3 1728.6)
(953.72467 2142.061 2158.6001)
(953.72467 2142.061 1728.6)
(951.11639 2130.071 2158.6001)
(951.11639 2130.071 1728.6)
(946.82843 2118.574 2158.6001)
(946.82843 2118.574 1728.6)
(940.94781 2107.8049 2158.6001)
(940.94781 2107.8049 1728.6)
(933.59448 2097.9819 2158.6001)
(933.59448 2097.9819 1728.6)
(924.91803 2089.3059 2158.6001)
(924.91803 2089.3059 1728.6)
(915.09509 2081.9519 2158.6001)
(915.09509 2081.9519 1728.6)
(904.32568 2076.072 2158.6001)
(904.32568 2076.072 1728.6)
(892.82898 2071.7839 2158.6001)
(892.82898 2071.7839 1728.6)
(880.83911 2069.175 2158.6001)
(880.83911 2069.175 1728.6)
(868.59998 2068.3 2158.6001)
(868.59998 2068.3 1728.6)
(856.3609 2069.175 2158.6001)
(856.3609 2069.175 1728.6)
(844.37097 2071.7839 2158.6001)
(844.37097 2071.7839 1728.6)
(832.87433 2076.072 2158.6001)
(832.87433 2076.072 1728.6)
(822.10492 2081.9519 2158.6001)
(822.10492 2081.9519 1728.6)
(812.28198 2089.3059 2158.6001)
(812.28198 2089.3059 1728.6)
(803.60553 2097.9819 2158.6001)
(803.60553 2097.9819 1728.6)
(796.2522 2107.8049 2158.6001)
(796.2522 2107.8049 1728.6)
(790.3717 2118.574 2158.6001)
(790.3717 2118.574 1728.6)
(786.08362 2130.071 2158.6001)
(786.08362 2130.071 1728.6)
(783.4754 2142.061 2158.6001)
(783.4754 2142.061 1728.6)
(782.59998 2154.3 2158.6001)
(880.83051 4.2999978 951.7049)
(868.59998 4.2999978 952.59998)
(868.59998 434.29999 952.59998)
(880.83051 434.29999 951.7049)
(892.80029 4.2999978 949.03851)
(892.80029 434.29999 949.03851)
(904.25439 4.2999978 944.65771)
(904.25439 434.29999 944.65771)
(914.94849 4.2999978 938.65582)
(914.94849 434.29999 938.65582)
(924.65479 4.2999978 931.16089)
(924.65479 434.29999 931.16089)
(933.16638 4.2999978 922.33252)
(933.16638 434.29999 922.33252)
(940.30182 4.2999978 912.35901)
(940.30182 434.29999 912.35901)
(945.90912 4.2999978 901.45282)
(945.90912 434.29999 901.45282)
(949.86859 4.2999978 889.84637)
(949.86859 434.29999 889.84637)
(952.09613 4.2999978 877.78717)
(952.09613 434.29999 877.78717)
(952.54401 4.2999978 865.53223)
(952.54401 434.29999 865.53223)
(951.2027 4.2999978 853.34253)
(951.2027 434.29999 853.34253)
(948.10101 4.2999978 841.47809)
(948.10101 434.29999 841.47809)
(943.30481 4.2999978 830.19171)
(943.30481 434.29999 830.19171)
(936.91638 4.2999978 819.72388)
(936.91638 434.29999 819.72388)
(929.0719 4.2999978 810.29779)
(929.0719 434.29999 810.29779)
(919.9386 4.2999978 802.11432)
(919.9386 434.29999 802.11432)
(909.71112 4.2999978 795.3479)
(909.71112 434.29999 795.3479)
(898.60742 4.2999978 790.1427)
(898.60742 434.29999 790.1427)
(886.86407 4.2999978 786.60962)
(886.86407 434.29999 786.60962)
(874.73163 4.2999978 784.8241)
(874.73163 434.29999 784.8241)
(868.59998 4.2999978 784.59998)
(868.59998 434.29999 784.59998)
(862.46838 4.2999978 784.8241)
(862.46838 434.29999 784.8241)
(850.33588 4.2999978 786.60962)
(850.33588 434.29999 786.60962)
(838.59259 4.2999978 790.1427)
(838.59259 434.29999 790.1427)
(827.48889 4.2999978 795.3479)
(827.48889 434.29999 795.3479)
(817.26141 4.2999978 802.11432)
(817.26141 434.29999 802.11432)
(808.12811 4.2999978 810.29779)
(808.12811 434.29999 810.29779)
(800.28369 4.2999978 819.72388)
(800.28369 434.29999 819.72388)
(793.89532 4.2999978 830.19171)
(793.89532 434.29999 830.19171)
(789.09912 4.2999978 841.47809)
(789.09912 434.29999 841.47809)
(785.99731 4.2999978 853.34253)
(785.99731 434.29999 853.34253)
(784.65613 4.2999978 865.53223)
(784.65613 434.29999 865.53223)
(785.10388 4.2999978 877.78717)
(785.10388 434.29999 877.78717)
(787.33142 4.2999978 889.84637)
(787.33142 434.29999 889.84637)
(791.29089 4.2999978 901.45282)
(791.29089 434.29999 901.45282)
(796.89819 4.2999978 912.35901)
(796.89819 434.29999 912.35901)
(804.03369 4.2999978 922.33252)
(804.03369 434.29999 922.33252)
(812.54523 4.2999978 931.16089)
(812.54523 434.29999 931.16089)
(822.25153 4.2999978 938.65582)
(822.25153 434.29999 938.65582)
(832.94562 4.2999978 944.65771)
(832.94562 434.29999 944.65771)
(844.39972 4.2999978 949.03851)
(844.39972 434.29999 949.03851)
(856.36951 4.2999978 951.7049)
(856.36951 434.29999 951.7049)
(822.10492 4.2999978 796.2522)
(832.87433 4.2999978 790.3717)
(844.37097 4.2999978 786.08362)
(856.3609 4.2999978 783.4754)
(868.59998 4.2999978 782.59998)
(880.83911 4.2999978 783.4754)
(892.82898 4.2999978 786.08362)
(904.32568 4.2999978 790.3717)
(915.09509 4.2999978 796.2522)
(924.91803 4.2999978 803.60553)
(933.59448 4.2999978 812.28198)
(940.94781 4.2999978 822.10492)
(946.82843 4.2999978 832.87433)
(951.11639 4.2999978 844.37097)
(953.72467 4.2999978 856.3609)
(954.59998 4.2999978 868.59998)
(953.72467 4.2999978 880.83911)
(951.11639 4.2999978 892.82898)
(946.82843 4.2999978 904.32568)
(940.94781 4.2999978 915.09509)
(933.59448 4.2999978 924.91803)
(924.91803 4.2999978 933.59448)
(915.09509 4.2999978 940.94781)
(904.32568 4.2999978 946.82843)
(892.82898 4.2999978 951.11639)
(880.83911 4.2999978 953.72467)
(868.59998 4.2999978 954.59998)
(856.3609 4.2999978 953.72467)
(844.37097 4.2999978 951.11639)
(832.87433 4.2999978 946.82843)
(822.10492 4.2999978 940.94781)
(812.28198 4.2999978 933.59448)
(803.60553 4.2999978 924.91803)
(796.2522 4.2999978 915.09509)
(790.3717 4.2999978 904.32568)
(786.08362 4.2999978 892.82898)
(783.4754 4.2999978 880.83911)
(782.59998 4.2999978 868.59998)
(783.4754 4.2999978 856.3609)
(786.08362 4.2999978 844.37097)
(790.3717 4.2999978 832.87433)
(796.2522 4.2999978 822.10492)
(803.60553 4.2999978 812.28198)
(812.28198 4.2999978 803.60553)
(880.83911 434.29999 953.72467)
(892.82898 434.29999 951.11639)
(904.32568 434.29999 946.82843)
(915.09509 434.29999 940.94781)
(924.91803 434.29999 933.59448)
(933.59448 434.29999 924.91803)
(940.94781 434.29999 915.09509)
(946.82843 434.29999 904.32568)
(951.11639 434.29999 892.82898)
(953.72467 434.29999 880.83911)
(953.72467 434.29999 856.3609)
(951.11639 434.29999 844.37097)
(946.82843 434.29999 832.87433)
(940.94781 434.29999 822.10492)
(933.59448 434.29999 812.28198)
(924.91803 434.29999 803.60553)
(915.09509 434.29999 796.2522)
(904.32568 434.29999 790.3717)
(892.82898 434.29999 786.08362)
(880.83911 434.29999 783.4754)
(856.3609 434.29999 783.4754)
(844.37097 434.29999 786.08362)
(832.87433 434.29999 790.3717)
(822.10492 434.29999 796.2522)
(812.28198 434.29999 803.60553)
(803.60553 434.29999 812.28198)
(796.2522 434.29999 822.10492)
(790.3717 434.29999 832.87433)
(786.08362 434.29999 844.37097)
(783.4754 434.29999 856.3609)
(783.4754 434.29999 880.83911)
(786.08362 434.29999 892.82898)
(790.3717 434.29999 904.32568)
(796.2522 434.29999 915.09509)
(803.60553 434.29999 924.91803)
(812.28198 434.29999 933.59448)
(822.10492 434.29999 940.94781)
(832.87433 434.29999 946.82843)
(844.37097 434.29999 951.11639)
(856.3609 434.29999 953.72467)
(814.6059 2218.6479 1724.899)
(804.25232 2208.2939 1724.184)
(826.59998 2227.0459 1725.571)
(868.59998 2238.3 1726.6)
(861.28912 2237.981 1726.569)
(854.01361 2237.0239 1726.476)
(846.83429 2235.4309 1726.324)
(839.8703 2233.2339 1726.119)
(833.11218 2230.436 1725.866)
(795.85388 2196.3 1723.511)
(792.47968 2189.8201 1723.217)
(789.66577 2183.03 1722.9611)
(787.4549 2176.0129 1722.754)
(785.87622 2168.886 1722.603)
(784.922 2161.647 1722.51)
(784.59998 2154.3 1722.478)
(784.92029 2146.9709 1722.51)
(785.87622 2139.7141 1722.603)
(787.46979 2132.531 1722.756)
(789.66577 2125.5701 1722.9611)
(792.46417 2118.813 1723.215)
(795.85388 2112.3 1723.511)
(804.25232 2100.3059 1724.184)
(814.6059 2089.9519 1724.899)
(826.59998 2081.554 1725.571)
(833.0788 2078.1799 1725.864)
(839.8703 2075.366 1726.119)
(846.88623 2073.155 1726.325)
(922.59418 2089.9519 1724.899)
(932.94769 2100.3059 1724.184)
(890.31293 2073.155 1726.325)
(897.32971 2075.366 1726.119)
(883.18652 2071.5759 1726.476)
(854.01361 2071.5759 1726.476)
(861.25171 2070.6221 1726.569)
(868.59998 2070.3 1726.6)
(875.94647 2070.6221 1726.569)
(904.12 2078.1799 1725.864)
(910.59998 2081.554 1725.571)
(941.34613 2112.3 1723.511)
(944.73523 2118.812 1723.215)
(947.53418 2125.5701 1722.9611)
(952.28192 2161.604 1722.509)
(951.32391 2168.886 1722.603)
(952.59998 2154.3 1722.478)
(949.73151 2132.5359 1722.756)
(951.32391 2139.7141 1722.603)
(952.28119 2146.988 1722.51)
(949.73621 2176.0471 1722.755)
(947.53418 2183.03 1722.9611)
(944.7337 2189.792 1723.2159)
(941.34613 2196.3 1723.511)
(932.94769 2208.2939 1724.184)
(922.59418 2218.6479 1724.899)
(910.59998 2227.0459 1725.571)
(904.0907 2230.4341 1725.866)
(897.32971 2233.2339 1726.119)
(890.3476 2235.436 1726.324)
(883.18652 2237.0239 1726.476)
(875.90179 2237.9819 1726.569)
(768.76007 434.29999 1722.785)
(868.59998 434.29999 1728.6)
(868.59998 2070.3 1728.6)
(861.28912 2070.6189 1728.569)
(854.01361 2071.5759 1728.476)
(846.83429 2073.1689 1728.325)
(839.8703 2075.366 1728.12)
(833.11218 2078.165 1727.8669)
(826.59998 2081.554 1727.574)
(814.6059 2089.9519 1726.903)
(804.25232 2100.3059 1726.189)
(795.85388 2112.3 1725.5179)
(792.47968 2118.78 1725.225)
(789.66577 2125.5701 1724.97)
(787.4549 2132.5869 1724.7629)
(785.87622 2139.7141 1724.6121)
(784.922 2146.9529 1724.519)
(784.59998 2154.3 1724.488)
(784.92029 2161.6289 1724.519)
(785.87622 2168.886 1724.6121)
(787.46979 2176.0691 1724.765)
(789.66577 2183.03 1724.97)
(792.46417 2189.7871 1725.223)
(795.85388 2196.3 1725.5179)
(804.25232 2208.2939 1726.189)
(814.6059 2218.6479 1726.903)
(826.59998 2227.0459 1727.574)
(833.0788 2230.4199 1727.866)
(839.8703 2233.2339 1728.12)
(854.01361 2237.0239 1728.476)
(861.25171 2237.978 1728.569)
(868.59998 2584.3 1728.6)
(768.76007 2584.3 1722.785)
(846.88623 2235.4451 1728.326)
(868.59998 2238.3 1728.6)
(875.94647 2237.978 1728.569)
(968.43988 2584.3 1722.785)
(883.18652 2237.0239 1728.476)
(890.31293 2235.4451 1728.326)
(897.32971 2233.2339 1728.12)
(904.12 2230.4209 1727.866)
(910.59998 2227.0459 1727.574)
(922.59418 2218.6479 1726.903)
(932.94769 2208.2939 1726.189)
(941.34613 2196.3 1725.5179)
(944.73523 2189.7881 1725.223)
(947.53418 2183.03 1724.97)
(949.73151 2176.064 1724.765)
(952.2818 2146.9961 1724.519)
(951.32391 2139.7141 1724.6121)
(951.32391 2168.886 1724.6121)
(952.28119 2161.6121 1724.519)
(952.59998 2154.3 1724.488)
(949.73621 2132.553 1724.764)
(947.53418 2125.5701 1724.97)
(944.7337 2118.8081 1725.223)
(941.34613 2112.3 1725.5179)
(932.94769 2100.3059 1726.189)
(922.59418 2089.9519 1726.903)
(910.59998 2081.554 1727.574)
(904.0907 2078.166 1727.8669)
(897.32971 2075.366 1728.12)
(890.3476 2073.1641 1728.325)
(883.18652 2071.5759 1728.476)
(968.43988 434.29999 1722.785)
(875.90179 2070.6179 1728.569)
(670.27039 2584.3 1705.4189)
(670.27039 434.29999 1705.4189)
(574.46271 2584.3 1676.736)
(574.46271 434.29999 1676.736)
(482.63269 2584.3 1637.124)
(482.63269 434.29999 1637.124)
(396.02231 2584.3 1587.12)
(396.02231 434.29999 1587.12)
(315.8027 2584.3 1527.3979)
(315.8027 434.29999 1527.3979)
(243.0587 2584.3 1458.7679)
(243.0587 434.29999 1458.7679)
(178.77409 2584.3 1382.156)
(178.77409 434.29999 1382.156)
(123.8182 2584.3 1298.6)
(123.8182 434.29999 1298.6)
(78.934128 2584.3 1209.229)
(78.934128 434.29999 1209.229)
(44.72905 2584.3 1115.251)
(44.72905 434.29999 1115.251)
(21.665331 2584.3 1017.937)
(21.665331 434.29999 1017.937)
(10.05501 2584.3 918.60461)
(10.05501 434.29999 918.60461)
(10.05501 2584.3 818.59552)
(10.05501 434.29999 818.59552)
(21.665331 2584.3 719.26257)
(21.665331 434.29999 719.26257)
(44.72905 2584.3 621.94922)
(44.72905 434.29999 621.94922)
(78.934128 2584.3 527.97137)
(78.934128 434.29999 527.97137)
(123.8182 2584.3 438.60001)
(123.8182 434.29999 438.60001)
(178.77409 2584.3 355.04361)
(178.77409 434.29999 355.04361)
(243.0587 2584.3 278.43219)
(243.0587 434.29999 278.43219)
(315.8027 2584.3 209.8018)
(315.8027 434.29999 209.8018)
(396.02231 2584.3 150.08051)
(396.02231 434.29999 150.08051)
(482.63269 2584.3 100.076)
(482.63269 434.29999 100.076)
(574.46271 2584.3 60.464378)
(574.46271 434.29999 60.464378)
(670.27039 2584.3 31.781441)
(670.27039 434.29999 31.781441)
(768.76007 2584.3 14.41503)
(768.76007 434.29999 14.41503)
(868.59998 2584.3 8.5999966)
(868.59998 434.29999 8.5999966)
(968.43988 2584.3 14.41503)
(968.43988 434.29999 14.41503)
(1066.9301 2584.3 31.781441)
(1066.9301 434.29999 31.781441)
(1162.7371 2584.3 60.464378)
(1162.7371 434.29999 60.464378)
(1254.567 2584.3 100.076)
(1254.567 434.29999 100.076)
(1341.178 2584.3 150.08051)
(1341.178 434.29999 150.08051)
(1421.397 2584.3 209.8018)
(1421.397 434.29999 209.8018)
(1494.141 2584.3 278.43219)
(1494.141 434.29999 278.43219)
(1558.426 2584.3 355.04361)
(1558.426 434.29999 355.04361)
(1613.382 2584.3 438.60001)
(1613.382 434.29999 438.60001)
(1658.266 2584.3 527.97137)
(1658.266 434.29999 527.97137)
(1692.4709 2584.3 621.94922)
(1692.4709 434.29999 621.94922)
(1715.535 2584.3 719.26257)
(1715.535 434.29999 719.26257)
(1727.145 2584.3 818.59552)
(1727.145 434.29999 818.59552)
(1727.145 2584.3 918.60461)
(1727.145 434.29999 918.60461)
(1715.535 2584.3 1017.937)
(1715.535 434.29999 1017.937)
(1692.4709 2584.3 1115.251)
(1692.4709 434.29999 1115.251)
(1658.266 2584.3 1209.229)
(1658.266 434.29999 1209.229)
(1613.382 2584.3 1298.6)
(1613.382 434.29999 1298.6)
(1558.426 2584.3 1382.156)
(1558.426 434.29999 1382.156)
(1494.141 2584.3 1458.7679)
(1494.141 434.29999 1458.7679)
(1421.397 2584.3 1527.3979)
(1421.397 434.29999 1527.3979)
(1341.178 2584.3 1587.12)
(1341.178 434.29999 1587.12)
(1254.567 2584.3 1637.124)
(1254.567 434.29999 1637.124)
(1162.7371 2584.3 1676.736)
(1162.7371 434.29999 1676.736)
(1066.9301 2584.3 1705.4189)
(1066.9301 434.29999 1705.4189)
(853.66632 434.29999 783.90649)
(911.59998 434.29999 943.07819)
(923.8797 434.29999 934.4798)
(898.01367 434.29999 949.41357)
(883.53381 434.29999 953.29352)
(825.59998 434.29999 943.07819)
(839.18628 434.29999 949.41357)
(813.32031 434.29999 934.4798)
(802.72021 434.29999 923.8797)
(934.4798 434.29999 923.8797)
(839.18628 434.29999 787.78638)
(825.59998 434.29999 794.12183)
(911.59998 434.29999 794.12183)
(898.01367 434.29999 787.78638)
(923.8797 434.29999 802.72021)
(883.53381 434.29999 783.90649)
(813.32031 434.29999 802.72021)
(802.72021 434.29999 813.32031)
(787.78638 434.29999 898.01367)
(794.12183 434.29999 911.59998)
(783.90649 434.29999 883.53381)
(853.66632 434.29999 953.29352)
(949.41357 434.29999 898.01367)
(953.29352 434.29999 883.53381)
(943.07819 434.29999 911.59998)
(953.29352 434.29999 853.66632)
(949.41357 434.29999 839.18628)
(934.4798 434.29999 813.32031)
(943.07819 434.29999 825.59998)
(794.12183 434.29999 825.59998)
(787.78638 434.29999 839.18628)
(783.90649 434.29999 853.66632)
(853.66632 436.29999 953.29352)
(839.18628 436.29999 949.41357)
(868.59998 436.29999 954.59998)
(825.59998 436.29999 943.07819)
(813.32031 436.29999 934.4798)
(787.78638 436.29999 898.01367)
(783.90649 436.29999 883.53381)
(794.12183 436.29999 911.59998)
(949.41357 436.29999 839.18628)
(953.29352 436.29999 853.66632)
(943.07819 436.29999 825.59998)
(934.4798 436.29999 923.8797)
(923.8797 436.29999 934.4798)
(943.07819 436.29999 911.59998)
(949.41357 436.29999 898.01367)
(911.59998 436.29999 943.07819)
(883.53381 436.29999 953.29352)
(898.01367 436.29999 949.41357)
(802.72021 436.29999 923.8797)
(954.59998 436.29999 868.59998)
(782.59998 436.29999 868.59998)
(802.72021 436.29999 813.32031)
(813.32031 436.29999 802.72021)
(794.12183 436.29999 825.59998)
(953.29352 436.29999 883.53381)
(787.78638 436.29999 839.18628)
(783.90649 436.29999 853.66632)
(825.59998 436.29999 794.12183)
(839.18628 436.29999 787.78638)
(853.66632 436.29999 783.90649)
(868.59998 436.29999 782.59998)
(883.53381 436.29999 783.90649)
(898.01367 436.29999 787.78638)
(911.59998 436.29999 794.12183)
(934.4798 436.29999 813.32031)
(923.8797 436.29999 802.72021)
(768.99231 2582.3 1720.798)
(868.59998 2582.3 1726.6)
(868.59998 436.29999 1726.6)
(768.99231 436.29999 1720.798)
(968.2077 436.29999 1720.798)
(968.2077 2582.3 1720.798)
(670.73163 2582.3 1703.472)
(670.73163 436.29999 1703.472)
(575.14673 2582.3 1674.856)
(575.14673 436.29999 1674.856)
(483.5303 2582.3 1635.337)
(483.5303 436.29999 1635.337)
(397.12131 2582.3 1585.449)
(397.12131 436.29999 1585.449)
(317.0882 2582.3 1525.866)
(317.0882 436.29999 1525.866)
(244.5135 2582.3 1457.395)
(244.5135 436.29999 1457.395)
(180.3783 2582.3 1380.962)
(180.3783 436.29999 1380.962)
(125.5502 2582.3 1297.6)
(125.5502 436.29999 1297.6)
(80.770607 2582.3 1208.436)
(80.770607 436.29999 1208.436)
(46.644989 2582.3 1114.677)
(46.644989 436.29999 1114.677)
(23.63497 2582.3 1017.59)
(23.63497 436.29999 1017.59)
(12.05158 2582.3 918.48828)
(12.05158 436.29999 918.48828)
(12.05158 2582.3 818.71167)
(12.05158 436.29999 818.71167)
(23.63497 2582.3 719.60992)
(23.63497 436.29999 719.60992)
(46.644989 2582.3 622.52283)
(46.644989 436.29999 622.52283)
(80.770607 2582.3 528.76361)
(80.770607 436.29999 528.76361)
(125.5502 2582.3 439.60001)
(125.5502 436.29999 439.60001)
(180.3783 2582.3 356.23792)
(180.3783 436.29999 356.23792)
(244.5135 2582.3 279.80469)
(244.5135 436.29999 279.80469)
(317.0882 2582.3 211.33389)
(317.0882 436.29999 211.33389)
(397.12131 2582.3 151.7515)
(397.12131 436.29999 151.7515)
(483.5303 2582.3 101.8632)
(483.5303 436.29999 101.8632)
(575.14673 2582.3 62.343719)
(575.14673 436.29999 62.343719)
(670.73163 2582.3 33.727531)
(670.73163 436.29999 33.727531)
(768.99231 2582.3 16.401529)
(768.99231 436.29999 16.401529)
(868.59998 2582.3 10.60003)
(868.59998 436.29999 10.60003)
(968.2077 2582.3 16.401529)
(968.2077 436.29999 16.401529)
(1066.468 2582.3 33.727531)
(1066.468 436.29999 33.727531)
(1162.053 2582.3 62.343719)
(1162.053 436.29999 62.343719)
(1253.67 2582.3 101.8632)
(1253.67 436.29999 101.8632)
(1340.079 2582.3 151.7515)
(1340.079 436.29999 151.7515)
(1420.1121 2582.3 211.33389)
(1420.1121 436.29999 211.33389)
(1492.687 2582.3 279.80469)
(1492.687 436.29999 279.80469)
(1556.822 2582.3 356.23792)
(1556.822 436.29999 356.23792)
(1611.65 2582.3 439.60001)
(1611.65 436.29999 439.60001)
(1656.429 2582.3 528.76361)
(1656.429 436.29999 528.76361)
(1690.5551 2582.3 622.52283)
(1690.5551 436.29999 622.52283)
(1713.5649 2582.3 719.60992)
(1713.5649 436.29999 719.60992)
(1725.1479 2582.3 818.71167)
(1725.1479 436.29999 818.71167)
(1725.1479 2582.3 918.48828)
(1725.1479 436.29999 918.48828)
(1713.5649 2582.3 1017.59)
(1713.5649 436.29999 1017.59)
(1690.5551 2582.3 1114.677)
(1690.5551 436.29999 1114.677)
(1656.429 2582.3 1208.436)
(1656.429 436.29999 1208.436)
(1611.65 2582.3 1297.6)
(1611.65 436.29999 1297.6)
(1556.822 2582.3 1380.962)
(1556.822 436.29999 1380.962)
(1492.687 2582.3 1457.395)
(1492.687 436.29999 1457.395)
(1420.1121 2582.3 1525.866)
(1420.1121 436.29999 1525.866)
(1340.079 2582.3 1585.449)
(1340.079 436.29999 1585.449)
(1253.67 2582.3 1635.337)
(1253.67 436.29999 1635.337)
(1162.053 2582.3 1674.856)
(1162.053 436.29999 1674.856)
(1066.468 2582.3 1703.472)
(1066.468 436.29999 1703.472)
)

// edges

760
(
(4 5)
(6 7)
(8 4)
(7 9)
(10 8)
(9 11)
(12 10)
(11 13)
(14 12)
(13 15)
(16 14)
(15 17)
(18 16)
(17 19)
(20 18)
(19 21)
(22 20)
(21 23)
(24 22)
(23 25)
(26 24)
(25 27)
(28 26)
(27 29)
(30 28)
(29 31)
(32 30)
(31 33)
(34 32)
(33 35)
(36 34)
(35 37)
(38 36)
(37 39)
(40 38)
(39 41)
(42 40)
(41 43)
(44 42)
(43 45)
(46 44)
(45 47)
(48 46)
(47 49)
(50 48)
(49 51)
(52 50)
(51 53)
(54 52)
(53 55)
(56 54)
(55 57)
(58 56)
(57 59)
(60 58)
(59 61)
(62 60)
(61 63)
(64 62)
(63 65)
(66 64)
(65 67)
(68 66)
(67 69)
(70 68)
(69 71)
(72 70)
(71 73)
(74 72)
(73 75)
(76 74)
(75 77)
(78 76)
(77 79)
(80 78)
(79 81)
(82 80)
(81 83)
(84 82)
(83 85)
(86 84)
(85 87)
(88 86)
(87 89)
(90 88)
(89 91)
(5 90)
(91 6)
(92 93)
(94 95)
(96 92)
(95 97)
(98 96)
(97 99)
(100 98)
(99 101)
(102 100)
(101 103)
(104 102)
(103 105)
(106 104)
(105 107)
(108 106)
(107 109)
(110 108)
(109 111)
(112 110)
(111 113)
(114 112)
(113 115)
(116 114)
(115 117)
(118 116)
(117 119)
(120 118)
(119 121)
(122 120)
(121 123)
(124 122)
(123 125)
(126 124)
(125 127)
(128 126)
(127 129)
(130 128)
(129 131)
(132 130)
(131 133)
(134 132)
(133 135)
(136 134)
(135 137)
(138 136)
(137 139)
(140 138)
(139 141)
(142 140)
(141 143)
(144 142)
(143 145)
(146 144)
(145 147)
(148 146)
(147 149)
(150 148)
(149 151)
(152 150)
(151 153)
(154 152)
(153 155)
(156 154)
(155 157)
(158 156)
(157 159)
(160 158)
(159 161)
(162 160)
(161 163)
(164 162)
(163 165)
(166 164)
(165 167)
(168 166)
(167 169)
(170 168)
(169 171)
(172 170)
(171 173)
(174 172)
(173 175)
(176 174)
(175 177)
(178 176)
(177 179)
(93 178)
(179 94)
(180 181)
(182 183)
(184 180)
(183 185)
(186 184)
(185 187)
(188 186)
(187 189)
(190 188)
(189 191)
(192 190)
(191 193)
(194 192)
(193 195)
(196 194)
(195 197)
(198 196)
(197 199)
(200 198)
(199 201)
(202 200)
(201 203)
(204 202)
(203 205)
(206 204)
(205 207)
(208 206)
(207 209)
(210 208)
(209 211)
(212 210)
(211 213)
(214 212)
(213 215)
(216 214)
(215 217)
(218 216)
(217 219)
(220 218)
(219 221)
(222 220)
(221 223)
(224 222)
(223 225)
(226 224)
(225 227)
(228 226)
(227 229)
(230 228)
(229 231)
(232 230)
(231 233)
(234 232)
(233 235)
(236 234)
(235 237)
(238 236)
(237 239)
(240 238)
(239 241)
(242 240)
(241 243)
(244 242)
(243 245)
(246 244)
(245 247)
(248 246)
(247 249)
(250 248)
(249 251)
(252 250)
(251 253)
(254 252)
(253 255)
(256 254)
(255 257)
(258 256)
(257 259)
(260 258)
(259 261)
(262 260)
(261 263)
(264 262)
(263 265)
(266 264)
(265 267)
(181 266)
(267 182)
(268 269)
(269 270)
(270 271)
(271 272)
(272 273)
(273 274)
(274 275)
(275 276)
(276 277)
(277 278)
(278 279)
(279 280)
(280 281)
(281 282)
(282 283)
(283 284)
(284 285)
(285 286)
(286 287)
(287 288)
(288 289)
(289 290)
(290 291)
(291 292)
(292 293)
(293 294)
(294 295)
(295 296)
(296 297)
(297 298)
(298 299)
(299 300)
(300 301)
(301 302)
(302 303)
(303 304)
(304 305)
(305 306)
(306 307)
(307 308)
(308 309)
(309 310)
(310 311)
(311 268)
(312 0)
(313 312)
(314 313)
(315 314)
(316 315)
(317 316)
(318 317)
(319 318)
(320 319)
(321 320)
(1 321)
(322 1)
(323 322)
(324 323)
(325 324)
(326 325)
(327 326)
(328 327)
(329 328)
(330 329)
(331 330)
(2 331)
(332 2)
(333 332)
(334 333)
(335 334)
(336 335)
(337 336)
(338 337)
(339 338)
(340 339)
(341 340)
(3 341)
(342 3)
(343 342)
(344 343)
(345 344)
(346 345)
(347 346)
(348 347)
(349 348)
(350 349)
(351 350)
(0 351)
(352 353)
(354 352)
(355 356)
(356 357)
(357 358)
(358 359)
(359 360)
(360 354)
(353 361)
(361 362)
(362 363)
(363 364)
(364 365)
(365 366)
(367 368)
(368 369)
(369 370)
(370 371)
(371 372)
(372 373)
(373 374)
(374 375)
(375 376)
(376 377)
(377 378)
(378 379)
(380 381)
(382 383)
(384 382)
(379 385)
(385 386)
(386 387)
(387 388)
(388 384)
(383 389)
(389 390)
(390 380)
(381 391)
(391 392)
(392 393)
(394 395)
(396 394)
(393 397)
(397 398)
(398 399)
(395 400)
(400 401)
(401 402)
(402 403)
(403 404)
(404 405)
(405 406)
(406 407)
(407 408)
(408 409)
(409 410)
(410 411)
(411 355)
(366 367)
(399 396)
(412 413)
(414 415)
(415 416)
(416 417)
(417 418)
(418 419)
(419 420)
(420 421)
(421 422)
(422 423)
(423 424)
(424 425)
(425 426)
(426 427)
(427 428)
(428 429)
(430 431)
(429 430)
(431 432)
(432 433)
(433 434)
(434 435)
(435 436)
(436 437)
(437 438)
(438 439)
(439 440)
(441 442)
(443 444)
(445 441)
(440 445)
(442 446)
(446 447)
(448 443)
(447 449)
(449 450)
(450 451)
(451 452)
(452 453)
(453 454)
(454 455)
(455 456)
(456 457)
(457 458)
(458 459)
(460 461)
(459 462)
(462 463)
(463 464)
(461 465)
(465 466)
(466 467)
(467 468)
(468 469)
(469 470)
(470 471)
(471 472)
(472 473)
(473 474)
(474 475)
(413 476)
(475 477)
(477 414)
(444 478)
(479 412)
(478 480)
(481 479)
(480 482)
(483 481)
(482 484)
(485 483)
(484 486)
(487 485)
(486 488)
(489 487)
(488 490)
(491 489)
(490 492)
(493 491)
(492 494)
(495 493)
(494 496)
(497 495)
(496 498)
(499 497)
(498 500)
(501 499)
(500 502)
(503 501)
(502 504)
(505 503)
(504 506)
(507 505)
(506 508)
(509 507)
(508 510)
(511 509)
(510 512)
(513 511)
(512 514)
(515 513)
(514 516)
(517 515)
(516 518)
(519 517)
(518 520)
(521 519)
(520 522)
(523 521)
(522 524)
(525 523)
(524 526)
(527 525)
(526 528)
(529 527)
(528 530)
(531 529)
(530 532)
(533 531)
(532 534)
(535 533)
(534 536)
(537 535)
(536 538)
(539 537)
(538 540)
(541 539)
(540 542)
(543 541)
(542 544)
(545 543)
(544 546)
(547 545)
(546 548)
(549 547)
(548 550)
(551 549)
(550 552)
(553 551)
(552 554)
(555 553)
(554 556)
(557 555)
(556 558)
(559 557)
(558 560)
(561 559)
(560 562)
(563 561)
(562 564)
(565 563)
(564 566)
(567 565)
(566 568)
(569 567)
(568 570)
(571 569)
(570 572)
(573 571)
(572 574)
(575 573)
(574 576)
(577 575)
(576 578)
(579 577)
(578 448)
(476 579)
(464 460)
(2 580)
(581 582)
(583 581)
(584 583)
(585 586)
(587 585)
(588 587)
(582 589)
(590 591)
(580 590)
(592 593)
(594 592)
(595 2)
(593 595)
(596 597)
(591 596)
(598 599)
(600 598)
(599 588)
(0 584)
(601 0)
(602 603)
(604 602)
(589 604)
(586 601)
(1 605)
(603 1)
(605 606)
(607 594)
(608 607)
(606 608)
(609 610)
(597 609)
(3 600)
(611 3)
(610 611)
(612 613)
(614 612)
(615 616)
(613 615)
(617 618)
(619 617)
(620 621)
(622 620)
(623 624)
(625 623)
(626 625)
(624 627)
(628 614)
(629 628)
(627 629)
(630 619)
(616 630)
(621 631)
(618 632)
(633 634)
(635 633)
(636 626)
(631 636)
(637 635)
(638 637)
(632 638)
(639 640)
(634 639)
(641 642)
(640 641)
(643 644)
(642 643)
(644 645)
(646 622)
(647 646)
(645 647)
(648 649)
(650 651)
(652 650)
(649 653)
(654 648)
(651 655)
(656 654)
(655 657)
(658 656)
(657 659)
(660 658)
(659 661)
(662 660)
(661 663)