/*--------------------------------*- C++ -*----------------------------------*\
  =========                 |
  \\      /  F ield         | OpenFOAM: The Open Source CFD Toolbox
   \\    /   O peration     | Website:  https://openfoam.org
    \\  /    A nd           | Version:  7  
     \\/     M anipulation  |
\*---------------------------------------------------------------------------*/
FoamFile
{
    version     2.0;
    format      ascii;
    class       dictionary;
    location    "system";
    object      controlDict;
}
// * * * * * * * * * * * * * * * * * * * * * * * * * * * * * * * * * * * * * //

application     twoPhaseEulerFoam;

startFrom       latestTime;//startTime;

startTime       0;

stopAt          endTime;

endTime         15;

deltaT          0.0001;//0.0005;

writeControl    runTime;

writeInterval   0.05;

purgeWrite      0;

writeFormat     ascii;

writePrecision  6;

writeCompression off;

timeFormat      general;

timePrecision   7;

runTimeModifiable yes;

adjustTimeStep  no;

maxCo           1;

maxDeltaT       0.01;


/*functions
{

    fieldAverage1
    {
        type            fieldAverage;
        libs            ("libfieldFunctionObjects.so");
        writeControl    writeTime;
        fields
        (
            U.air
            {
                 mean        on;
                 prime2Mean  off;
                 base        time;
            }

            U.water
            {
                 mean        on;
                 prime2Mean  off;
                 base        time;
            }

		p
            {
                 mean        on;
                 prime2Mean  off;
                 base        time;
            }
        );
    }
}
*/



functions
{
  #includeFunc sampleDict
  #includeFunc singleGraph
}


// ************************************************************************* //
