/*--------------------------------*- C++ -*----------------------------------*\
  =========                 |
  \\      /  F ield         | OpenFOAM: The Open Source CFD Toolbox
   \\    /   O peration     | Website:  https://openfoam.org
    \\  /    A nd           | Version:  9
     \\/     M anipulation  |
\*---------------------------------------------------------------------------*/
FoamFile
{
    format      ascii;
    class       featureEdgeMesh;
    location    "constant/triSurface";
    object      drafttube.eMesh;
}
// * * * * * * * * * * * * * * * * * * * * * * * * * * * * * * * * * * * * * //


// points:

313
(
(576.77802 478.198 1081.545)
(476.77802 478.198 1081.545)
(526.77802 478.198 1131.545)
(526.77802 478.198 1031.545)
(526.77802 478.198 1033.545)
(526.77802 478.198 1129.545)
(533.89368 228.198 1032.054)
(526.77802 228.198 1031.545)
(533.89368 478.198 1032.054)
(540.86462 478.198 1033.5699)
(540.86462 228.198 1033.5699)
(547.54883 478.198 1036.063)
(547.54883 228.198 1036.063)
(553.81 478.198 1039.4821)
(553.81 228.198 1039.4821)
(559.521 478.198 1043.757)
(559.521 228.198 1043.757)
(564.56549 478.198 1048.802)
(564.56549 228.198 1048.802)
(568.8407 478.198 1054.5129)
(568.8407 228.198 1054.5129)
(572.25958 478.198 1060.774)
(572.25958 228.198 1060.774)
(574.75269 478.198 1067.458)
(574.75269 228.198 1067.458)
(576.2691 478.198 1074.429)
(576.2691 228.198 1074.429)
(576.77802 228.198 1081.545)
(576.2691 478.198 1088.661)
(576.2691 228.198 1088.661)
(574.75269 478.198 1095.631)
(574.75269 228.198 1095.631)
(572.25958 478.198 1102.316)
(572.25958 228.198 1102.316)
(568.8407 478.198 1108.577)
(568.8407 228.198 1108.577)
(564.56549 478.198 1114.288)
(564.56549 228.198 1114.288)
(559.521 478.198 1119.332)
(559.521 228.198 1119.332)
(553.81 478.198 1123.608)
(553.81 228.198 1123.608)
(547.54883 478.198 1127.026)
(547.54883 228.198 1127.026)
(540.86462 478.198 1129.52)
(540.86462 228.198 1129.52)
(533.89368 478.198 1131.036)
(533.89368 228.198 1131.036)
(526.77802 228.198 1131.545)
(519.66229 478.198 1131.036)
(519.66229 228.198 1131.036)
(512.69141 478.198 1129.52)
(512.69141 228.198 1129.52)
(506.0072 478.198 1127.026)
(506.0072 228.198 1127.026)
(499.746 478.198 1123.608)
(499.746 228.198 1123.608)
(494.035 478.198 1119.332)
(494.035 228.198 1119.332)
(488.99051 478.198 1114.288)
(488.99051 228.198 1114.288)
(484.7153 478.198 1108.577)
(484.7153 228.198 1108.577)
(481.29639 478.198 1102.316)
(481.29639 228.198 1102.316)
(478.80341 478.198 1095.631)
(478.80341 228.198 1095.631)
(477.2869 478.198 1088.661)
(477.2869 228.198 1088.661)
(476.77802 228.198 1081.545)
(477.2869 478.198 1074.429)
(477.2869 228.198 1074.429)
(478.80341 478.198 1067.458)
(478.80341 228.198 1067.458)
(481.29639 478.198 1060.774)
(481.29639 228.198 1060.774)
(484.7153 478.198 1054.5129)
(484.7153 228.198 1054.5129)
(488.99051 478.198 1048.802)
(488.99051 228.198 1048.802)
(494.035 478.198 1043.757)
(494.035 228.198 1043.757)
(499.746 478.198 1039.4821)
(499.746 228.198 1039.4821)
(506.0072 478.198 1036.063)
(506.0072 228.198 1036.063)
(512.69141 478.198 1033.5699)
(512.69141 228.198 1033.5699)
(519.66229 478.198 1032.054)
(519.66229 228.198 1032.054)
(563.6731 478.198 1050.8409)
(567.75049 478.198 1056.54)
(558.80933 478.198 1045.796)
(553.26288 478.198 1041.5129)
(547.15192 478.198 1038.083)
(540.60681 478.198 1035.58)
(533.76691 478.198 1034.056)
(519.78912 478.198 1034.056)
(512.94922 478.198 1035.58)
(506.40411 478.198 1038.083)
(500.29321 478.198 1041.5129)
(494.7467 478.198 1045.796)
(489.8829 478.198 1050.8409)
(485.80551 478.198 1056.54)
(482.60141 478.198 1062.772)
(480.33881 478.198 1069.4041)
(479.06601 478.198 1076.295)
(478.81 478.198 1083.298)
(479.57639 478.198 1090.2629)
(481.34891 478.198 1097.043)
(484.0896 478.198 1103.4919)
(487.74011 478.198 1109.474)
(492.2226 478.198 1114.86)
(497.44171 478.198 1119.537)
(503.28589 478.198 1123.403)
(509.63089 478.198 1126.3781)
(516.34137 478.198 1128.396)
(523.27417 478.198 1129.417)
(530.2818 478.198 1129.417)
(537.2146 478.198 1128.396)
(543.92511 478.198 1126.3781)
(550.27008 478.198 1123.403)
(556.11432 478.198 1119.537)
(561.33337 478.198 1114.86)
(565.81592 478.198 1109.474)
(569.46637 478.198 1103.4919)
(572.20709 478.198 1097.043)
(573.97961 478.198 1090.2629)
(574.74597 478.198 1083.298)
(574.48999 478.198 1076.295)
(573.21722 478.198 1069.4041)
(570.95459 478.198 1062.772)
(516.34137 228.198 1128.396)
(523.27417 228.198 1129.417)
(509.63089 228.198 1126.3781)
(503.28589 228.198 1123.403)
(497.44171 228.198 1119.537)
(492.2226 228.198 1114.86)
(487.74011 228.198 1109.474)
(484.0896 228.198 1103.4919)
(481.34891 228.198 1097.043)
(479.57639 228.198 1090.2629)
(478.81 228.198 1083.298)
(479.06601 228.198 1076.295)
(480.33881 228.198 1069.4041)
(482.60141 228.198 1062.772)
(485.80551 228.198 1056.54)
(489.8829 228.198 1050.8409)
(494.7467 228.198 1045.796)
(500.29321 228.198 1041.5129)
(506.40411 228.198 1038.083)
(512.94922 228.198 1035.58)
(519.78912 228.198 1034.056)
(526.77802 228.198 1033.545)
(533.76691 228.198 1034.056)
(540.60681 228.198 1035.58)
(547.15192 228.198 1038.083)
(553.26288 228.198 1041.5129)
(558.80933 228.198 1045.796)
(563.6731 228.198 1050.8409)
(567.75049 228.198 1056.54)
(570.95459 228.198 1062.772)
(573.21722 228.198 1069.4041)
(574.48999 228.198 1076.295)
(574.74597 228.198 1083.298)
(573.97961 228.198 1090.2629)
(572.20709 228.198 1097.043)
(569.46637 228.198 1103.4919)
(565.81592 228.198 1109.474)
(561.33337 228.198 1114.86)
(556.11432 228.198 1119.537)
(550.27008 228.198 1123.403)
(543.92511 228.198 1126.3781)
(537.2146 228.198 1128.396)
(530.2818 228.198 1129.417)
(535.46039 478.198 1032.304)
(535.46039 888.198 1032.304)
(543.87903 888.198 1034.5601)
(543.87903 478.198 1034.5601)
(551.77802 888.198 1038.244)
(551.77802 478.198 1038.244)
(558.91742 888.198 1043.243)
(558.91742 478.198 1043.243)
(565.0802 888.198 1049.405)
(565.0802 478.198 1049.405)
(570.07928 888.198 1056.545)
(570.07928 478.198 1056.545)
(573.76257 888.198 1064.444)
(573.76257 478.198 1064.444)
(576.01837 888.198 1072.8621)
(576.01837 478.198 1072.8621)
(576.77802 888.198 1081.545)
(576.01837 888.198 1090.2271)
(576.01837 478.198 1090.2271)
(573.76257 888.198 1098.646)
(573.76257 478.198 1098.646)
(570.07928 888.198 1106.545)
(570.07928 478.198 1106.545)
(565.0802 888.198 1113.684)
(565.0802 478.198 1113.684)
(558.91742 888.198 1119.847)
(558.91742 478.198 1119.847)
(551.77802 888.198 1124.8459)
(551.77802 478.198 1124.8459)
(543.87903 888.198 1128.5291)
(543.87903 478.198 1128.5291)
(535.46039 888.198 1130.785)
(535.46039 478.198 1130.785)
(526.77802 888.198 1131.545)
(518.09558 888.198 1130.785)
(518.09558 478.198 1130.785)
(509.677 888.198 1128.5291)
(509.677 478.198 1128.5291)
(501.77802 888.198 1124.8459)
(501.77802 478.198 1124.8459)
(494.63861 888.198 1119.847)
(494.63861 478.198 1119.847)
(488.4758 888.198 1113.684)
(488.4758 478.198 1113.684)
(483.47672 888.198 1106.545)
(483.47672 478.198 1106.545)
(479.7934 888.198 1098.646)
(479.7934 478.198 1098.646)
(477.5376 888.198 1090.2271)
(477.5376 478.198 1090.2271)
(476.77802 888.198 1081.545)
(477.5376 888.198 1072.8621)
(477.5376 478.198 1072.8621)
(479.7934 888.198 1064.444)
(479.7934 478.198 1064.444)
(483.47672 888.198 1056.545)
(483.47672 478.198 1056.545)
(488.4758 888.198 1049.405)
(488.4758 478.198 1049.405)
(494.63861 888.198 1043.243)
(494.63861 478.198 1043.243)
(501.77802 888.198 1038.244)
(501.77802 478.198 1038.244)
(509.677 888.198 1034.5601)
(509.677 478.198 1034.5601)
(518.09558 888.198 1032.304)
(518.09558 478.198 1032.304)
(526.77802 888.198 1031.545)
(563.5481 888.198 1112.399)
(557.63177 888.198 1118.3149)
(568.34723 888.198 1105.545)
(571.88318 888.198 1097.962)
(574.04883 888.198 1089.88)
(574.77802 888.198 1081.545)
(574.04883 888.198 1073.21)
(571.88318 888.198 1065.1281)
(568.34723 888.198 1057.545)
(563.5481 888.198 1050.691)
(557.63177 888.198 1044.775)
(550.77802 888.198 1039.976)
(543.19501 888.198 1036.4399)
(535.1131 888.198 1034.274)
(526.77802 888.198 1033.545)
(518.44287 888.198 1034.274)
(510.36099 888.198 1036.4399)
(502.77802 888.198 1039.976)
(495.92419 888.198 1044.775)
(490.0079 888.198 1050.691)
(485.2088 888.198 1057.545)
(481.67279 888.198 1065.1281)
(479.5072 888.198 1073.21)
(478.77802 888.198 1081.545)
(479.5072 888.198 1089.88)
(481.67279 888.198 1097.962)
(485.2088 888.198 1105.545)
(490.0079 888.198 1112.399)
(495.92419 888.198 1118.3149)
(502.77802 888.198 1123.114)
(510.36099 888.198 1126.65)
(518.44287 888.198 1128.816)
(526.77802 888.198 1129.545)
(535.1131 888.198 1128.816)
(543.19501 888.198 1126.65)
(550.77802 888.198 1123.114)
(568.34723 478.198 1057.545)
(563.5481 478.198 1050.691)
(571.88318 478.198 1065.1281)
(574.04883 478.198 1073.21)
(574.77802 478.198 1081.545)
(574.04883 478.198 1089.88)
(571.88318 478.198 1097.962)
(568.34723 478.198 1105.545)
(563.5481 478.198 1112.399)
(557.63177 478.198 1118.3149)
(550.77802 478.198 1123.114)
(543.19501 478.198 1126.65)
(535.1131 478.198 1128.816)
(518.44287 478.198 1128.816)
(510.36099 478.198 1126.65)
(502.77802 478.198 1123.114)
(495.92419 478.198 1118.3149)
(490.0079 478.198 1112.399)
(485.2088 478.198 1105.545)
(481.67279 478.198 1097.962)
(479.5072 478.198 1089.88)
(478.77802 478.198 1081.545)
(479.5072 478.198 1073.21)
(481.67279 478.198 1065.1281)
(485.2088 478.198 1057.545)
(490.0079 478.198 1050.691)
(495.92419 478.198 1044.775)
(502.77802 478.198 1039.976)
(510.36099 478.198 1036.4399)
(518.44287 478.198 1034.274)
(535.1131 478.198 1034.274)
(543.19501 478.198 1036.4399)
(550.77802 478.198 1039.976)
(557.63177 478.198 1044.775)
)


// edges:

321
(
(6 7)
(8 9)
(10 6)
(9 11)
(12 10)
(11 13)
(14 12)
(13 15)
(16 14)
(15 17)
(18 16)
(17 19)
(20 18)
(19 21)
(22 20)
(21 23)
(24 22)
(23 25)
(26 24)
(25 0)
(27 26)
(0 28)
(29 27)
(28 30)
(31 29)
(30 32)
(33 31)
(32 34)
(35 33)
(34 36)
(37 35)
(36 38)
(39 37)
(38 40)
(41 39)
(40 42)
(43 41)
(42 44)
(45 43)
(44 46)
(47 45)
(46 2)
(48 47)
(2 49)
(50 48)
(49 51)
(52 50)
(51 53)
(54 52)
(53 55)
(56 54)
(55 57)
(58 56)
(57 59)
(60 58)
(59 61)
(62 60)
(61 63)
(64 62)
(63 65)
(66 64)
(65 67)
(68 66)
(67 1)
(69 68)
(1 70)
(71 69)
(70 72)
(73 71)
(72 74)
(75 73)
(74 76)
(77 75)
(76 78)
(79 77)
(78 80)
(81 79)
(80 82)
(83 81)
(82 84)
(85 83)
(84 86)
(87 85)
(86 88)
(89 87)
(88 3)
(7 89)
(3 8)
(90 91)
(92 90)
(93 92)
(94 93)
(95 94)
(96 95)
(4 96)
(97 4)
(98 97)
(99 98)
(100 99)
(101 100)
(102 101)
(103 102)
(104 103)
(105 104)
(106 105)
(107 106)
(108 107)
(109 108)
(110 109)
(111 110)
(112 111)
(113 112)
(114 113)
(115 114)
(116 115)
(117 116)
(5 117)
(118 5)
(119 118)
(120 119)
(121 120)
(122 121)
(123 122)
(124 123)
(125 124)
(126 125)
(127 126)
(128 127)
(129 128)
(130 129)
(131 130)
(91 131)
(132 133)
(134 132)
(135 134)
(136 135)
(137 136)
(138 137)
(139 138)
(140 139)
(141 140)
(142 141)
(143 142)
(144 143)
(145 144)
(146 145)
(147 146)
(148 147)
(149 148)
(150 149)
(151 150)
(152 151)
(153 152)
(154 153)
(155 154)
(156 155)
(157 156)
(158 157)
(159 158)
(160 159)
(161 160)
(162 161)
(163 162)
(164 163)
(165 164)
(166 165)
(167 166)
(168 167)
(169 168)
(170 169)
(171 170)
(172 171)
(173 172)
(174 173)
(133 174)
(175 3)
(176 177)
(178 175)
(177 179)
(180 178)
(179 181)
(182 180)
(181 183)
(184 182)
(183 185)
(186 184)
(185 187)
(188 186)
(187 189)
(190 188)
(189 191)
(0 190)
(191 192)
(193 0)
(192 194)
(195 193)
(194 196)
(197 195)
(196 198)
(199 197)
(198 200)
(201 199)
(200 202)
(203 201)
(202 204)
(205 203)
(204 206)
(207 205)
(206 208)
(2 207)
(208 209)
(210 2)
(209 211)
(212 210)
(211 213)
(214 212)
(213 215)
(216 214)
(215 217)
(218 216)
(217 219)
(220 218)
(219 221)
(222 220)
(221 223)
(224 222)
(223 225)
(1 224)
(225 226)
(227 1)
(226 228)
(229 227)
(228 230)
(231 229)
(230 232)
(233 231)
(232 234)
(235 233)
(234 236)
(237 235)
(236 238)
(239 237)
(238 240)
(241 239)
(240 242)
(3 241)
(242 176)
(243 244)
(245 243)
(246 245)
(247 246)
(248 247)
(249 248)
(250 249)
(251 250)
(252 251)
(253 252)
(254 253)
(255 254)
(256 255)
(257 256)
(258 257)
(259 258)
(260 259)
(261 260)
(262 261)
(263 262)
(264 263)
(265 264)
(266 265)
(267 266)
(268 267)
(269 268)
(270 269)
(271 270)
(272 271)
(273 272)
(274 273)
(275 274)
(276 275)
(277 276)
(278 277)
(244 278)
(279 280)
(281 279)
(282 281)
(283 282)
(284 283)
(285 284)
(286 285)
(287 286)
(288 287)
(289 288)
(290 289)
(291 290)
(5 291)
(292 5)
(293 292)
(294 293)
(295 294)
(296 295)
(297 296)
(298 297)
(299 298)
(300 299)
(301 300)
(302 301)
(303 302)
(304 303)
(305 304)
(306 305)
(307 306)
(308 307)
(4 308)
(309 4)
(310 309)
(311 310)
(312 311)
(280 312)
(3 4)
(2 5)
)

// * * * * * * * * * * * * * * * * * * * * * * * * * * * * * * * * * * * * * //


// ************************************************************************* //
