/*--------------------------------*- C++ -*----------------------------------*\
  =========                 |
  \\      /  F ield         | OpenFOAM: The Open Source CFD Toolbox
   \\    /   O peration     | Website:  https://openfoam.org
    \\  /    A nd           | Version:  9
     \\/     M anipulation  |
\*---------------------------------------------------------------------------*/
FoamFile
{
    format      ascii;
    class       featureEdgeMesh;
    location    "constant/triSurface";
    object      vessel.eMesh;
}
// * * * * * * * * * * * * * * * * * * * * * * * * * * * * * * * * * * * * * //


// points:

238
(
(622.776 1348.171 1082.157)
(621.31952 1348.198 1098.215)
(622.77612 1348.171 1080.934)
(621.31952 1348.198 1064.875)
(622.77802 148.198 1081.545)
(621.31952 148.198 1064.875)
(621.31952 148.198 1098.215)
(616.98853 1348.198 1114.379)
(616.98853 148.198 1114.379)
(609.91638 1348.198 1129.545)
(609.91638 148.198 1129.545)
(600.3183 1348.198 1143.252)
(600.3183 148.198 1143.252)
(588.4856 1348.198 1155.085)
(588.4856 148.198 1155.085)
(574.77802 1348.198 1164.683)
(574.77802 148.198 1164.683)
(559.61188 1348.198 1171.755)
(559.61188 148.198 1171.755)
(543.44818 1348.198 1176.0861)
(543.44818 148.198 1176.0861)
(526.77802 1348.198 1177.545)
(526.77802 148.198 1177.545)
(510.10779 1348.198 1176.0861)
(510.10779 148.198 1176.0861)
(493.94409 1348.198 1171.755)
(493.94409 148.198 1171.755)
(478.77802 1348.198 1164.683)
(478.77802 148.198 1164.683)
(465.0704 1348.198 1155.085)
(465.0704 148.198 1155.085)
(453.2377 1348.198 1143.252)
(453.2377 148.198 1143.252)
(443.63959 1348.198 1129.545)
(443.63959 148.198 1129.545)
(436.5675 1348.198 1114.379)
(436.5675 148.198 1114.379)
(432.23651 1348.198 1098.215)
(432.23651 148.198 1098.215)
(430.77802 1348.198 1081.545)
(430.77802 148.198 1081.545)
(432.23651 1348.198 1064.875)
(432.23651 148.198 1064.875)
(436.5675 1348.198 1048.7111)
(436.5675 148.198 1048.7111)
(443.63959 1348.198 1033.545)
(443.63959 148.198 1033.545)
(453.2377 1348.198 1019.837)
(453.2377 148.198 1019.837)
(465.0704 1348.198 1008.005)
(465.0704 148.198 1008.005)
(478.77802 1348.198 998.40637)
(478.77802 148.198 998.40637)
(493.94409 1348.198 991.33441)
(493.94409 148.198 991.33441)
(510.10779 1348.198 987.0033)
(510.10779 148.198 987.0033)
(526.77802 1348.198 985.54492)
(526.77802 148.198 985.54492)
(543.44818 1348.198 987.0033)
(543.44818 148.198 987.0033)
(559.61188 1348.198 991.33441)
(559.61188 148.198 991.33441)
(574.77802 1348.198 998.40637)
(574.77802 148.198 998.40637)
(588.4856 1348.198 1008.005)
(588.4856 148.198 1008.005)
(600.3183 1348.198 1019.837)
(600.3183 148.198 1019.837)
(609.91638 1348.198 1033.545)
(609.91638 148.198 1033.545)
(616.98853 1348.198 1048.7111)
(616.98853 148.198 1048.7111)
(651.77802 1348.092 1080.329)
(651.77802 1347.776 1079.151)
(651.77802 1347.26 1078.045)
(651.77802 1346.5601 1077.045)
(651.77802 1345.698 1076.183)
(651.77802 1344.698 1075.483)
(651.77802 1343.592 1074.967)
(651.77802 1342.4139 1074.651)
(651.77802 1341.198 1074.545)
(651.77802 1339.983 1074.651)
(651.77802 1338.804 1074.967)
(651.77802 1337.698 1075.483)
(651.77802 1336.699 1076.183)
(651.77802 1335.8361 1077.045)
(651.77802 1335.136 1078.045)
(651.77802 1334.62 1079.151)
(651.77802 1334.304 1080.329)
(651.77802 1334.198 1081.545)
(651.77802 1334.304 1082.76)
(651.77802 1334.62 1083.939)
(651.77802 1335.136 1085.045)
(651.77802 1335.8361 1086.0439)
(651.77802 1336.699 1086.907)
(651.77802 1337.698 1087.6071)
(651.77802 1338.804 1088.123)
(651.77802 1339.983 1088.439)
(651.77802 1341.198 1088.545)
(651.77802 1342.4139 1088.439)
(651.77802 1343.592 1088.123)
(651.77802 1344.698 1087.6071)
(651.77802 1345.698 1086.907)
(651.77802 1346.5601 1086.0439)
(651.77802 1347.26 1085.045)
(651.77802 1347.776 1083.939)
(651.77802 1348.092 1082.76)
(651.77802 1348.198 1081.545)
(533.67169 0.69802231 1080.329)
(533.35577 0.69802231 1079.151)
(532.84021 0.69802231 1078.045)
(532.14032 0.69802231 1077.045)
(531.27753 0.69802231 1076.183)
(530.27802 0.69802231 1075.483)
(529.17212 0.69802231 1074.967)
(527.99353 0.69802231 1074.651)
(526.77802 0.69802231 1074.545)
(525.5625 0.69802231 1074.651)
(524.38391 0.69802231 1074.967)
(523.27802 0.69802231 1075.483)
(522.2785 0.69802231 1076.183)
(521.41571 0.69802231 1077.045)
(520.71582 0.69802231 1078.045)
(520.2002 0.69802231 1079.151)
(519.88428 0.69802231 1080.329)
(519.77802 0.69802231 1081.545)
(519.88428 0.69802231 1082.76)
(520.2002 0.69802231 1083.939)
(520.71582 0.69802231 1085.045)
(521.41571 0.69802231 1086.0439)
(522.2785 0.69802231 1086.907)
(523.27802 0.69802231 1087.6071)
(524.38391 0.69802231 1088.123)
(525.5625 0.69802231 1088.439)
(526.77802 0.69802231 1088.545)
(527.99353 0.69802231 1088.439)
(529.17212 0.69802231 1088.123)
(530.27802 0.69802231 1087.6071)
(531.27753 0.69802231 1086.907)
(532.14032 0.69802231 1086.0439)
(532.84021 0.69802231 1085.045)
(533.35577 0.69802231 1083.939)
(533.67169 0.69802231 1082.76)
(533.77802 0.69802231 1081.545)
(622.77032 1334.304 1082.76)
(622.76093 1334.437 1083.3571)
(622.74811 1334.62 1083.939)
(622.73242 1334.854 1084.5031)
(622.71417 1335.136 1085.045)
(622.67249 1335.8361 1086.0439)
(622.62811 1336.699 1086.907)
(622.58643 1337.698 1087.6071)
(622.56812 1338.241 1087.889)
(622.55243 1338.804 1088.123)
(622.53961 1339.386 1088.306)
(622.53021 1339.983 1088.439)
(622.52441 1340.59 1088.5179)
(622.52252 1341.198 1088.545)
(622.52441 1341.807 1088.5179)
(622.53021 1342.4139 1088.439)
(622.53961 1343.012 1088.306)
(622.55243 1343.592 1088.123)
(622.56812 1344.155 1087.889)
(622.58643 1344.698 1087.6071)
(622.62811 1345.698 1086.907)
(622.67249 1346.5601 1086.0439)
(622.71417 1347.26 1085.045)
(622.73242 1347.541 1084.505)
(622.74811 1347.776 1083.939)
(622.76093 1347.96 1083.354)
(622.77032 1348.092 1082.76)
(622.76093 1347.959 1079.731)
(622.74811 1347.776 1079.151)
(622.77032 1348.092 1080.329)
(622.73242 1347.543 1078.588)
(622.71417 1347.26 1078.045)
(622.67249 1346.5601 1077.045)
(622.62811 1345.698 1076.183)
(622.58643 1344.698 1075.483)
(622.56818 1344.158 1075.202)
(622.55243 1343.592 1074.967)
(622.53961 1343.0081 1074.783)
(622.53021 1342.4139 1074.651)
(622.52441 1341.8101 1074.572)
(622.52252 1341.198 1074.545)
(622.52441 1340.5861 1074.572)
(622.53021 1339.983 1074.651)
(622.53949 1339.389 1074.783)
(622.55243 1338.804 1074.967)
(622.56818 1338.238 1075.201)
(622.58643 1337.698 1075.483)
(622.62811 1336.699 1076.183)
(622.67249 1335.8361 1077.045)
(622.71417 1335.136 1078.045)
(622.73242 1334.853 1078.587)
(622.74811 1334.62 1079.151)
(622.76093 1334.437 1079.731)
(622.77032 1334.304 1080.329)
(622.77612 1334.225 1080.9351)
(622.77802 1334.198 1081.545)
(622.77612 1334.225 1082.1541)
(519.8858 25.698009 1082.76)
(520.20148 25.698009 1083.938)
(520.7171 25.698009 1085.0439)
(521.41681 25.698009 1086.043)
(522.27942 25.698009 1086.906)
(523.27869 25.698009 1087.606)
(524.3844 25.698009 1088.121)
(525.56268 25.698009 1088.437)
(526.77802 25.698009 1088.543)
(527.99329 25.698009 1088.437)
(529.17157 25.698009 1088.121)
(530.27728 25.698009 1087.606)
(531.27661 25.698009 1086.906)
(532.13922 25.698009 1086.043)
(532.83893 25.698009 1085.0439)
(533.35449 25.698009 1083.938)
(533.67023 25.698009 1082.76)
(533.77649 25.698009 1081.545)
(533.67023 25.698009 1080.33)
(533.35449 25.698009 1079.151)
(532.83893 25.698009 1078.046)
(532.13922 25.698009 1077.046)
(531.27661 25.698009 1076.184)
(530.27728 25.698009 1075.484)
(529.17157 25.698009 1074.968)
(527.99329 25.698009 1074.653)
(526.77802 25.698009 1074.546)
(525.56268 25.698009 1074.653)
(524.3844 25.698009 1074.968)
(523.27869 25.698009 1075.484)
(522.27942 25.698009 1076.184)
(521.41681 25.698009 1077.046)
(520.7171 25.698009 1078.046)
(520.20148 25.698009 1079.151)
(519.8858 25.698009 1080.33)
(519.77948 25.698009 1081.545)
)


// edges:

238
(
(0 1)
(2 3)
(4 5)
(6 4)
(1 7)
(8 6)
(7 9)
(10 8)
(9 11)
(12 10)
(11 13)
(14 12)
(13 15)
(16 14)
(15 17)
(18 16)
(17 19)
(20 18)
(19 21)
(22 20)
(21 23)
(24 22)
(23 25)
(26 24)
(25 27)
(28 26)
(27 29)
(30 28)
(29 31)
(32 30)
(31 33)
(34 32)
(33 35)
(36 34)
(35 37)
(38 36)
(37 39)
(40 38)
(39 41)
(42 40)
(41 43)
(44 42)
(43 45)
(46 44)
(45 47)
(48 46)
(47 49)
(50 48)
(49 51)
(52 50)
(51 53)
(54 52)
(53 55)
(56 54)
(55 57)
(58 56)
(57 59)
(60 58)
(59 61)
(62 60)
(61 63)
(64 62)
(63 65)
(66 64)
(65 67)
(68 66)
(67 69)
(70 68)
(69 71)
(72 70)
(71 3)
(5 72)
(73 74)
(74 75)
(75 76)
(76 77)
(77 78)
(78 79)
(79 80)
(80 81)
(81 82)
(82 83)
(83 84)
(84 85)
(85 86)
(86 87)
(88 89)
(87 88)
(89 90)
(90 91)
(91 92)
(92 93)
(93 94)
(94 95)
(95 96)
(96 97)
(97 98)
(98 99)
(99 100)
(100 101)
(101 102)
(102 103)
(103 104)
(104 105)
(106 107)
(105 106)
(108 73)
(107 108)
(109 110)
(110 111)
(111 112)
(112 113)
(113 114)
(114 115)
(115 116)
(116 117)
(117 118)
(118 119)
(119 120)
(120 121)
(121 122)
(122 123)
(123 124)
(124 125)
(125 126)
(126 127)
(127 128)
(128 129)
(129 130)
(130 131)
(131 132)
(132 133)
(133 134)
(134 135)
(135 136)
(136 137)
(137 138)
(138 139)
(139 140)
(140 141)
(141 142)
(142 143)
(143 144)
(144 109)
(145 146)
(146 147)
(147 148)
(148 149)
(149 150)
(150 151)
(151 152)
(152 153)
(153 154)
(154 155)
(155 156)
(156 157)
(157 158)
(158 159)
(159 160)
(160 161)
(161 162)
(162 163)
(163 164)
(164 165)
(165 166)
(166 167)
(167 168)
(168 169)
(169 170)
(170 171)
(171 0)
(172 173)
(2 174)
(174 172)
(173 175)
(175 176)
(176 177)
(177 178)
(178 179)
(179 180)
(180 181)
(181 182)
(182 183)
(183 184)
(184 185)
(185 186)
(186 187)
(187 188)
(188 189)
(190 191)
(191 192)
(192 193)
(193 194)
(194 195)
(195 196)
(196 197)
(197 198)
(198 199)
(199 200)
(200 201)
(201 145)
(189 190)
(202 203)
(203 204)
(204 205)
(205 206)
(206 207)
(207 208)
(208 209)
(209 210)
(210 211)
(211 212)
(212 213)
(213 214)
(214 215)
(215 216)
(216 217)
(217 218)
(218 219)
(219 220)
(220 221)
(221 222)
(222 223)
(223 224)
(224 225)
(225 226)
(226 227)
(227 228)
(228 229)
(229 230)
(230 231)
(231 232)
(232 233)
(233 234)
(234 235)
(235 236)
(236 237)
(237 202)
)

// * * * * * * * * * * * * * * * * * * * * * * * * * * * * * * * * * * * * * //


// ************************************************************************* //
