/*--------------------------------*- C++ -*----------------------------------*\
  =========                 |
  \\      /  F ield         | OpenFOAM: The Open Source CFD Toolbox
   \\    /   O peration     | Website:  https://openfoam.org
    \\  /    A nd           | Version:  9
     \\/     M anipulation  |
\*---------------------------------------------------------------------------*/
FoamFile
{
    format      ascii;
    class       featureEdgeMesh;
    location    "constant/triSurface";
    object      inlet.eMesh;
}
// * * * * * * * * * * * * * * * * * * * * * * * * * * * * * * * * * * * * * //


// points:

120
(
(742.16962 5.6199732 656.77332)
(734.72601 5.6199732 655.59442)
(727.20001 5.6199732 655.20001)
(719.67389 5.6199732 655.59442)
(763.20001 5.6199732 664.84613)
(756.48499 5.6199732 661.42468)
(749.44922 5.6199732 658.72388)
(780.70642 5.6199732 679.02258)
(775.37738 5.6199732 673.69348)
(769.52051 5.6199732 668.95068)
(792.97522 5.6199732 697.91492)
(789.55377 5.6199732 691.20001)
(785.44922 5.6199732 684.87939)
(798.80548 5.6199732 719.67389)
(797.62659 5.6199732 712.23029)
(795.67603 5.6199732 704.95068)
(797.62659 5.6199732 742.16962)
(798.80548 5.6199732 734.72601)
(799.20001 5.6199732 727.20001)
(789.55377 5.6199732 763.20001)
(792.97522 5.6199732 756.48499)
(795.67603 5.6199732 749.44922)
(775.37738 5.6199732 780.70642)
(780.70642 5.6199732 775.37738)
(785.44922 5.6199732 769.52051)
(756.48499 5.6199732 792.97522)
(763.20001 5.6199732 789.55377)
(769.52051 5.6199732 785.44922)
(734.72601 5.6199732 798.80548)
(742.16962 5.6199732 797.62659)
(749.44922 5.6199732 795.67603)
(712.23029 5.6199732 797.62659)
(719.67389 5.6199732 798.80548)
(727.20001 5.6199732 799.20001)
(691.20001 5.6199732 789.55377)
(697.91492 5.6199732 792.97522)
(704.95068 5.6199732 795.67603)
(673.69348 5.6199732 775.37738)
(679.02258 5.6199732 780.70642)
(684.87939 5.6199732 785.44922)
(661.42468 5.6199732 756.48499)
(664.84613 5.6199732 763.20001)
(668.95068 5.6199732 769.52051)
(655.59442 5.6199732 734.72601)
(656.77332 5.6199732 742.16962)
(658.72388 5.6199732 749.44922)
(656.77332 5.6199732 712.23029)
(655.59442 5.6199732 719.67389)
(655.20001 5.6199732 727.20001)
(664.84613 5.6199732 691.20001)
(661.42468 5.6199732 697.91492)
(658.72388 5.6199732 704.95068)
(679.02258 5.6199732 673.69348)
(673.69348 5.6199732 679.02258)
(668.95068 5.6199732 684.87939)
(697.91492 5.6199732 661.42468)
(691.20001 5.6199732 664.84613)
(684.87939 5.6199732 668.95068)
(712.23029 5.6199732 656.77332)
(704.95068 5.6199732 658.72388)
(734.72601 3.6199989 798.80548)
(742.16962 3.6199989 797.62659)
(749.44922 3.6199989 795.67603)
(756.48499 3.6199989 792.97522)
(763.20001 3.6199989 789.55377)
(769.52051 3.6199989 785.44922)
(775.37738 3.6199989 780.70642)
(780.70642 3.6199989 775.37738)
(785.44922 3.6199989 769.52051)
(789.55377 3.6199989 763.20001)
(792.97522 3.6199989 756.48499)
(795.67603 3.6199989 749.44922)
(797.62659 3.6199989 742.16962)
(798.80548 3.6199989 734.72601)
(799.20001 3.6199989 727.20001)
(798.80548 3.6199989 719.67389)
(797.62659 3.6199989 712.23029)
(795.67603 3.6199989 704.95068)
(792.97522 3.6199989 697.91492)
(789.55377 3.6199989 691.20001)
(785.44922 3.6199989 684.87939)
(780.70642 3.6199989 679.02258)
(775.37738 3.6199989 673.69348)
(769.52051 3.6199989 668.95068)
(763.20001 3.6199989 664.84613)
(756.48499 3.6199989 661.42468)
(749.44922 3.6199989 658.72388)
(742.16962 3.6199989 656.77332)
(734.72601 3.6199989 655.59442)
(727.20001 3.6199989 655.20001)
(719.67389 3.6199989 655.59442)
(712.23029 3.6199989 656.77332)
(704.95068 3.6199989 658.72388)
(697.91492 3.6199989 661.42468)
(691.20001 3.6199989 664.84613)
(684.87939 3.6199989 668.95068)
(679.02258 3.6199989 673.69348)
(673.69348 3.6199989 679.02258)
(668.95068 3.6199989 684.87939)
(664.84613 3.6199989 691.20001)
(661.42468 3.6199989 697.91492)
(658.72388 3.6199989 704.95068)
(656.77332 3.6199989 712.23029)
(655.59442 3.6199989 719.67389)
(655.20001 3.6199989 727.20001)
(655.59442 3.6199989 734.72601)
(656.77332 3.6199989 742.16962)
(658.72388 3.6199989 749.44922)
(661.42468 3.6199989 756.48499)
(664.84613 3.6199989 763.20001)
(668.95068 3.6199989 769.52051)
(673.69348 3.6199989 775.37738)
(679.02258 3.6199989 780.70642)
(684.87939 3.6199989 785.44922)
(691.20001 3.6199989 789.55377)
(697.91492 3.6199989 792.97522)
(704.95068 3.6199989 795.67603)
(712.23029 3.6199989 797.62659)
(719.67389 3.6199989 798.80548)
(727.20001 3.6199989 799.20001)
)


// edges:

120
(
(0 1)
(1 2)
(2 3)
(4 5)
(5 6)
(6 0)
(7 8)
(8 9)
(9 4)
(10 11)
(11 12)
(12 7)
(13 14)
(14 15)
(15 10)
(16 17)
(17 18)
(18 13)
(19 20)
(20 21)
(21 16)
(22 23)
(23 24)
(24 19)
(25 26)
(26 27)
(27 22)
(28 29)
(29 30)
(30 25)
(31 32)
(32 33)
(33 28)
(34 35)
(35 36)
(36 31)
(37 38)
(38 39)
(39 34)
(40 41)
(41 42)
(42 37)
(43 44)
(44 45)
(45 40)
(46 47)
(47 48)
(48 43)
(49 50)
(50 51)
(51 46)
(52 53)
(53 54)
(54 49)
(55 56)
(56 57)
(57 52)
(3 58)
(58 59)
(59 55)
(60 61)
(61 62)
(62 63)
(63 64)
(64 65)
(65 66)
(66 67)
(67 68)
(68 69)
(69 70)
(70 71)
(71 72)
(72 73)
(73 74)
(74 75)
(75 76)
(76 77)
(77 78)
(78 79)
(79 80)
(80 81)
(81 82)
(82 83)
(83 84)
(84 85)
(85 86)
(86 87)
(87 88)
(88 89)
(89 90)
(90 91)
(91 92)
(92 93)
(93 94)
(94 95)
(95 96)
(96 97)
(97 98)
(98 99)
(99 100)
(100 101)
(101 102)
(102 103)
(103 104)
(104 105)
(105 106)
(106 107)
(107 108)
(108 109)
(109 110)
(110 111)
(111 112)
(112 113)
(113 114)
(114 115)
(115 116)
(116 117)
(117 118)
(118 119)
(119 60)
)

// * * * * * * * * * * * * * * * * * * * * * * * * * * * * * * * * * * * * * //


// ************************************************************************* //
