/*--------------------------------*- C++ -*----------------------------------*\
  =========                 |
  \\      /  F ield         | OpenFOAM: The Open Source CFD Toolbox
   \\    /   O peration     | Website:  https://openfoam.org
    \\  /    A nd           | Version:  9
     \\/     M anipulation  |
\*---------------------------------------------------------------------------*/
FoamFile
{
    format      ascii;
    class       featureEdgeMesh;
    location    "constant/triSurface";
    object      outlet.eMesh;
}
// * * * * * * * * * * * * * * * * * * * * * * * * * * * * * * * * * * * * * //


// points:

120
(
(797.62659 1800.65 1809.2)
(798.80548 1808.094 1809.2)
(799.20001 1815.62 1809.2)
(798.80548 1823.146 1809.2)
(789.55377 1779.62 1809.2)
(792.97522 1786.335 1809.2)
(795.67603 1793.371 1809.2)
(775.37738 1762.114 1809.2)
(780.70642 1767.443 1809.2)
(785.44922 1773.299 1809.2)
(756.48499 1749.845 1809.2)
(763.20001 1753.266 1809.2)
(769.52051 1757.371 1809.2)
(734.72601 1744.014 1809.2)
(742.16962 1745.193 1809.2)
(749.44922 1747.144 1809.2)
(712.23029 1745.193 1809.2)
(719.67389 1744.014 1809.2)
(727.20001 1743.62 1809.2)
(691.20001 1753.266 1809.2)
(697.91492 1749.845 1809.2)
(704.95068 1747.144 1809.2)
(673.69348 1767.443 1809.2)
(679.02258 1762.114 1809.2)
(684.87939 1757.371 1809.2)
(661.42468 1786.335 1809.2)
(664.84613 1779.62 1809.2)
(668.95068 1773.299 1809.2)
(655.59442 1808.094 1809.2)
(656.77332 1800.65 1809.2)
(658.72388 1793.371 1809.2)
(656.77332 1830.59 1809.2)
(655.59442 1823.146 1809.2)
(655.20001 1815.62 1809.2)
(664.84613 1851.62 1809.2)
(661.42468 1844.905 1809.2)
(658.72388 1837.869 1809.2)
(679.02258 1869.126 1809.2)
(673.69348 1863.797 1809.2)
(668.95068 1857.941 1809.2)
(697.91492 1881.395 1809.2)
(691.20001 1877.974 1809.2)
(684.87939 1873.869 1809.2)
(719.67389 1887.226 1809.2)
(712.23029 1886.047 1809.2)
(704.95068 1884.0959 1809.2)
(742.16962 1886.047 1809.2)
(734.72601 1887.226 1809.2)
(727.20001 1887.62 1809.2)
(763.20001 1877.974 1809.2)
(756.48499 1881.395 1809.2)
(749.44922 1884.0959 1809.2)
(780.70642 1863.797 1809.2)
(775.37738 1869.126 1809.2)
(769.52051 1873.869 1809.2)
(792.97522 1844.905 1809.2)
(789.55377 1851.62 1809.2)
(785.44922 1857.941 1809.2)
(797.62659 1830.59 1809.2)
(795.67603 1837.869 1809.2)
(655.59442 1823.146 1807.2)
(655.20001 1815.62 1807.2)
(656.77332 1830.59 1807.2)
(658.72388 1837.869 1807.2)
(661.42468 1844.905 1807.2)
(664.84613 1851.62 1807.2)
(668.95068 1857.941 1807.2)
(673.69348 1863.797 1807.2)
(679.02258 1869.126 1807.2)
(684.87939 1873.869 1807.2)
(691.20001 1877.974 1807.2)
(697.91492 1881.395 1807.2)
(704.95068 1884.0959 1807.2)
(712.23029 1886.047 1807.2)
(719.67389 1887.226 1807.2)
(727.20001 1887.62 1807.2)
(734.72601 1887.226 1807.2)
(742.16962 1886.047 1807.2)
(749.44922 1884.0959 1807.2)
(756.48499 1881.395 1807.2)
(763.20001 1877.974 1807.2)
(769.52051 1873.869 1807.2)
(775.37738 1869.126 1807.2)
(780.70642 1863.797 1807.2)
(785.44922 1857.941 1807.2)
(789.55377 1851.62 1807.2)
(792.97522 1844.905 1807.2)
(795.67603 1837.869 1807.2)
(797.62659 1830.59 1807.2)
(798.80548 1823.146 1807.2)
(799.20001 1815.62 1807.2)
(798.80548 1808.094 1807.2)
(797.62659 1800.65 1807.2)
(795.67603 1793.371 1807.2)
(792.97522 1786.335 1807.2)
(789.55377 1779.62 1807.2)
(785.44922 1773.299 1807.2)
(780.70642 1767.443 1807.2)
(775.37738 1762.114 1807.2)
(769.52051 1757.371 1807.2)
(763.20001 1753.266 1807.2)
(756.48499 1749.845 1807.2)
(749.44922 1747.144 1807.2)
(742.16962 1745.193 1807.2)
(734.72601 1744.014 1807.2)
(727.20001 1743.62 1807.2)
(719.67389 1744.014 1807.2)
(712.23029 1745.193 1807.2)
(704.95068 1747.144 1807.2)
(697.91492 1749.845 1807.2)
(691.20001 1753.266 1807.2)
(684.87939 1757.371 1807.2)
(679.02258 1762.114 1807.2)
(673.69348 1767.443 1807.2)
(668.95068 1773.299 1807.2)
(664.84613 1779.62 1807.2)
(661.42468 1786.335 1807.2)
(658.72388 1793.371 1807.2)
(656.77332 1800.65 1807.2)
(655.59442 1808.094 1807.2)
)


// edges:

120
(
(0 1)
(1 2)
(2 3)
(4 5)
(5 6)
(6 0)
(7 8)
(8 9)
(9 4)
(10 11)
(11 12)
(12 7)
(13 14)
(14 15)
(15 10)
(16 17)
(17 18)
(18 13)
(19 20)
(20 21)
(21 16)
(22 23)
(23 24)
(24 19)
(25 26)
(26 27)
(27 22)
(28 29)
(29 30)
(30 25)
(31 32)
(32 33)
(33 28)
(34 35)
(35 36)
(36 31)
(37 38)
(38 39)
(39 34)
(40 41)
(41 42)
(42 37)
(43 44)
(44 45)
(45 40)
(46 47)
(47 48)
(48 43)
(49 50)
(50 51)
(51 46)
(52 53)
(53 54)
(54 49)
(55 56)
(56 57)
(57 52)
(3 58)
(58 59)
(59 55)
(60 61)
(62 60)
(63 62)
(64 63)
(65 64)
(66 65)
(67 66)
(68 67)
(69 68)
(70 69)
(71 70)
(72 71)
(73 72)
(74 73)
(75 74)
(76 75)
(77 76)
(78 77)
(79 78)
(80 79)
(81 80)
(82 81)
(83 82)
(84 83)
(85 84)
(86 85)
(87 86)
(88 87)
(89 88)
(90 89)
(91 90)
(92 91)
(93 92)
(94 93)
(95 94)
(96 95)
(97 96)
(98 97)
(99 98)
(100 99)
(101 100)
(102 101)
(103 102)
(104 103)
(105 104)
(106 105)
(107 106)
(108 107)
(109 108)
(110 109)
(111 110)
(112 111)
(113 112)
(114 113)
(115 114)
(116 115)
(117 116)
(118 117)
(119 118)
(61 119)
)

// * * * * * * * * * * * * * * * * * * * * * * * * * * * * * * * * * * * * * //


// ************************************************************************* //
